Molecule
  DSViewer          3D                             0

 16 17  0  0  0  0  0  0  0  0999 V2000
    1.9206   -1.7688    0.7886 C   0  0  0  0  0  0  0  0  0  1
    0.5867   -1.1140    1.0765 C   0  0  0  0  0  0  0  0  0  2
   -0.1111   -1.4182    2.1686 C   0  0  0  0  0  0  0  0  0  3
   -1.3298   -0.6240    2.1465 C   0  0  0  0  0  0  0  0  0  4
   -2.3584   -0.7008    3.2153 C   0  0  0  0  0  0  0  0  0  5
   -3.3941   -0.0259    3.1965 O   0  0  0  0  0  0  0  0  0  6
   -1.3544    0.1439    1.0518 C   0  0  0  0  0  0  0  0  0  7
   -2.4920    1.1010    0.7170 C   0  0  0  0  0  0  0  0  0  8
   -0.1342   -0.1158    0.2943 N   0  0  0  0  0  0  0  0  0  9
    0.2925    0.5083   -1.0116 C   0  0  0  0  0  0  0  0  0 10
   -0.4654    1.4192   -1.6304 C   0  0  0  0  0  0  0  0  0 11
   -0.0591    2.0295   -2.8973 C   0  0  0  0  0  0  0  0  0 12
    1.0902    1.6835   -3.4657 C   0  0  0  0  0  0  0  0  0 13
    1.9412    0.6964   -2.8229 C   0  0  0  0  0  0  0  0  0 14
    1.5686    0.1433   -1.6705 C   0  0  0  0  0  0  0  0  0 15
    1.4631    2.2419   -4.6260 F   0  0  0  0  0  0  0  0  0 16
  1  2  1  0  0  0
  2  9  1  0  0  0
  2  3  2  0  0  0
  3  4  1  0  0  0
  4  5  1  0  0  0
  4  7  2  0  0  0
  5  6  2  0  0  0
  7  8  1  0  0  0
  7  9  1  0  0  0
  9 10  1  0  0  0
 10 15  1  0  0  0
 10 11  2  0  0  0
 11 12  1  0  0  0
 12 13  2  0  0  0
 13 14  1  0  0  0
 13 16  1  0  0  0
 14 15  2  0  0  0
M  END
> <MolfileName>
Molecule

> <COMPOUND_ID>
1

> <OSM_ID>
OSM-S-02

> <IC50_nM_Assay01>
>100,000

> <Chemist_code>
PMY2-4

$$$$
Molecule
  DSViewer          3D                             0

 19 20  0  0  0  0  0  0  0  0999 V2000
    5.3610    5.2335    0.9158 C   0  0  0  0  0  0  0  0  0  1
    5.6690    4.3679   -0.3346 C   0  0  0  0  0  0  0  0  0  2
    5.2180    2.9991   -0.1724 O   0  0  0  0  0  0  0  0  0  3
    3.8131    2.8947   -0.1948 C   0  0  0  0  0  0  0  0  0  4
    3.1233    3.9070   -0.3528 O   0  0  0  0  0  0  0  0  0  5
    3.1877    1.5462   -0.0798 C   0  0  0  0  0  0  0  0  0  6
    3.9537    0.3106    0.0221 C   0  0  0  0  0  0  0  0  0  7
    3.0841   -0.6978    0.0810 C   0  0  0  0  0  0  0  0  0  8
    3.5491   -2.1387    0.1873 C   0  0  0  0  0  0  0  0  0  9
    1.7208   -0.1733    0.0266 N   0  0  0  0  0  0  0  0  0 10
    1.8758    1.2692   -0.0695 C   0  0  0  0  0  0  0  0  0 11
    0.7902    2.3275   -0.1612 C   0  0  0  0  0  0  0  0  0 12
    0.4280   -0.9562    0.0315 C   0  0  0  0  0  0  0  0  0 13
    0.4205   -2.2939    0.0472 C   0  0  0  0  0  0  0  0  0 14
   -0.8337   -3.0557    0.0376 C   0  0  0  0  0  0  0  0  0 15
   -2.0014   -2.4216    0.0125 C   0  0  0  0  0  0  0  0  0 16
   -2.0300   -0.9719   -0.0022 C   0  0  0  0  0  0  0  0  0 17
   -0.8919   -0.2836    0.0066 C   0  0  0  0  0  0  0  0  0 18
   -3.1481   -3.1161    0.0004 F   0  0  0  0  0  0  0  0  0 19
  1  2  1  0  0  0
  2  3  1  0  0  0
  3  4  1  0  0  0
  4  5  2  0  0  0
  4  6  1  0  0  0
  6 11  2  0  0  0
  6  7  1  0  0  0
  7  8  2  0  0  0
  8  9  1  0  0  0
  8 10  1  0  0  0
 10 11  1  0  0  0
 10 13  1  0  0  0
 11 12  1  0  0  0
 13 18  1  0  0  0
 13 14  2  0  0  0
 14 15  1  0  0  0
 15 16  2  0  0  0
 16 17  1  0  0  0
 16 19  1  0  0  0
 17 18  2  0  0  0
M  END
> <MolfileName>
Molecule

> <COMPOUND_ID>
2

> <OSM_ID>
OSM-S-03

> <IC50_nM_Assay01>
12000

$$$$
Molecule
  DSViewer          3D                             0

 17 18  0  0  0  0  0  0  0  0999 V2000
    1.9509   -1.7378    0.7137 C   0  0  0  0  0  0  0  0  0  1
    0.6173   -1.0819    1.0003 C   0  0  0  0  0  0  0  0  0  2
   -0.0814   -1.3849    2.0919 C   0  0  0  0  0  0  0  0  0  3
   -1.2994   -0.5903    2.0690 C   0  0  0  0  0  0  0  0  0  4
   -1.3231    0.1772    0.9733 C   0  0  0  0  0  0  0  0  0  5
   -2.4593    1.1352    0.6360 C   0  0  0  0  0  0  0  0  0  6
   -0.1023   -0.0840    0.2171 N   0  0  0  0  0  0  0  0  0  7
    0.3259    0.5397   -1.0889 C   0  0  0  0  0  0  0  0  0  8
   -0.4311    1.4503   -1.7087 C   0  0  0  0  0  0  0  0  0  9
   -0.0239    2.0604   -2.9752 C   0  0  0  0  0  0  0  0  0 10
    1.1260    1.7144   -3.5423 C   0  0  0  0  0  0  0  0  0 11
    1.9764    0.7274   -2.8985 C   0  0  0  0  0  0  0  0  0 12
    1.6028    0.1744   -1.7464 C   0  0  0  0  0  0  0  0  0 13
    1.4998    2.2728   -4.7024 F   0  0  0  0  0  0  0  0  0 14
   -2.3270   -0.6679    3.1387 C   0  0  0  0  0  0  0  0  0 15
   -3.3580    0.0133    3.1067 O   0  0  0  0  0  0  0  0  0 16
   -2.1220   -1.5329    4.2078 O   0  0  0  0  0  0  0  0  0 17
  1  2  1  0  0  0
  2  7  1  0  0  0
  2  3  2  0  0  0
  3  4  1  0  0  0
  4  5  2  0  0  0
  4 15  1  0  0  0
  5  6  1  0  0  0
  5  7  1  0  0  0
  7  8  1  0  0  0
  8 13  1  0  0  0
  8  9  2  0  0  0
  9 10  1  0  0  0
 10 11  2  0  0  0
 11 12  1  0  0  0
 11 14  1  0  0  0
 12 13  2  0  0  0
 15 16  2  0  0  0
 15 17  1  0  0  0
M  END
> <MolfileName>
Molecule

> <COMPOUND_ID>
3

> <OSM_ID>
OSM-S-04

> <IC50_nM_Assay01>
>100,000

$$$$
Molecule
  DSViewer          3D                             0

 21 22  0  0  0  0  0  0  0  0999 V2000
    0.5975    2.6010    0.4260 C   0  0  0  0  0  0  0  0  0  1
    1.6170    1.5093    0.1775 C   0  0  0  0  0  0  0  0  0  2
    2.9216    1.7747    0.1026 C   0  0  0  0  0  0  0  0  0  3
    3.6102    0.5176   -0.1593 C   0  0  0  0  0  0  0  0  0  4
    2.7197   -0.4856   -0.2171 C   0  0  0  0  0  0  0  0  0  5
    3.1025   -1.9372   -0.4720 C   0  0  0  0  0  0  0  0  0  6
    1.3965    0.0803   -0.0035 N   0  0  0  0  0  0  0  0  0  7
    0.0820   -0.6614    0.0105 C   0  0  0  0  0  0  0  0  0  8
    0.0368   -1.9939   -0.0454 C   0  0  0  0  0  0  0  0  0  9
   -1.2236   -2.7293   -0.0401 C   0  0  0  0  0  0  0  0  0 10
   -2.3747   -2.0716    0.0174 C   0  0  0  0  0  0  0  0  0 11
   -2.3706   -0.6173    0.0801 C   0  0  0  0  0  0  0  0  0 12
   -1.2166    0.0496    0.0796 C   0  0  0  0  0  0  0  0  0 13
   -3.5329   -2.7457    0.0182 F   0  0  0  0  0  0  0  0  0 14
    5.0792    0.3995   -0.3593 C   0  0  0  0  0  0  0  0  0 15
    5.5780   -0.6418   -0.7897 O   0  0  0  0  0  0  0  0  0 16
    5.9041    1.5057   -0.0845 O   0  0  0  0  0  0  0  0  0 17
    7.3067    1.2648   -0.4161 C   0  0  0  0  0  0  0  0  0 18
    7.9794    0.1187    0.3402 C   0  0  0  0  0  0  0  0  0 19
    9.2022   -0.1405    0.1104 N   0  0  0  0  0  0  0  0  0 20
    7.2645   -0.6903    1.2241 O   0  0  0  0  0  0  0  0  0 21
  1  2  1  0  0  0
  2  7  1  0  0  0
  2  3  2  0  0  0
  3  4  1  0  0  0
  4  5  2  0  0  0
  4 15  1  0  0  0
  5  6  1  0  0  0
  5  7  1  0  0  0
  7  8  1  0  0  0
  8 13  1  0  0  0
  8  9  2  0  0  0
  9 10  1  0  0  0
 10 11  2  0  0  0
 11 12  1  0  0  0
 11 14  1  0  0  0
 12 13  2  0  0  0
 15 16  2  0  0  0
 15 17  1  0  0  0
 17 18  1  0  0  0
 18 19  1  0  0  0
 19 20  2  0  0  0
 19 21  1  0  0  0
M  END
> <MolfileName>
Molecule

> <COMPOUND_ID>
4

> <OSM_ID>
OSM-S-05

> <IC50_nM_Assay01>
404

$$$$
Molecule
  DSViewer          3D                             0

 35 38  0  0  0  0  0  0  0  0999 V2000
   -3.8429    7.1921    0.4559 C   0  0  0  0  0  0  0  0  0  1
   -4.2854    5.7666    0.1999 C   0  0  0  0  0  0  0  0  0  2
   -3.4040    4.7726    0.1077 C   0  0  0  0  0  0  0  0  0  3
   -4.1491    3.5490   -0.1565 C   0  0  0  0  0  0  0  0  0  4
   -5.4587    3.8128   -0.1970 C   0  0  0  0  0  0  0  0  0  5
   -6.5257    2.7545   -0.4497 C   0  0  0  0  0  0  0  0  0  6
   -5.6350    5.2436    0.0238 N   0  0  0  0  0  0  0  0  0  7
   -6.9267    6.0196    0.0301 C   0  0  0  0  0  0  0  0  0  8
   -8.1095    5.4022   -0.0481 C   0  0  0  0  0  0  0  0  0  9
   -9.3689    6.1442   -0.0567 C   0  0  0  0  0  0  0  0  0 10
   -9.3609    7.4703    0.0088 C   0  0  0  0  0  0  0  0  0 11
   -8.0939    8.1785    0.0950 C   0  0  0  0  0  0  0  0  0 12
   -6.9488    7.4989    0.1077 C   0  0  0  0  0  0  0  0  0 13
  -10.5151    8.1513   -0.0040 F   0  0  0  0  0  0  0  0  0 14
   -3.4886    2.2370   -0.3734 C   0  0  0  0  0  0  0  0  0 15
   -4.1233    1.2621   -0.7878 O   0  0  0  0  0  0  0  0  0 16
   -2.1080    2.1435   -0.1404 O   0  0  0  0  0  0  0  0  0 17
   -1.4800    0.8624   -0.4650 C   0  0  0  0  0  0  0  0  0 18
   -1.9895   -0.3839    0.2742 C   0  0  0  0  0  0  0  0  0 19
   -1.2786   -1.4378    0.4783 N   0  0  0  0  0  0  0  0  0 20
    0.1265   -1.7024    0.2245 C   0  0  0  0  0  0  0  0  0 21
    0.6184   -2.9262    0.0968 C   0  0  0  0  0  0  0  0  0 22
   -0.1893   -4.1908    0.1427 C   0  0  0  0  0  0  0  0  0 23
    2.0077   -2.8575   -0.0612 N   0  0  0  0  0  0  0  0  0 24
    2.8269   -4.0462   -0.2128 C   0  0  0  0  0  0  0  0  0 25
    2.4024   -1.5089   -0.0029 N   0  0  0  0  0  0  0  0  0 26
    3.7581   -0.9228   -0.0552 C   0  0  0  0  0  0  0  0  0 27
    4.8670   -1.6659   -0.1169 C   0  0  0  0  0  0  0  0  0 28
    6.1949   -1.0471   -0.1387 C   0  0  0  0  0  0  0  0  0 29
    6.3167    0.2763   -0.0934 C   0  0  0  0  0  0  0  0  0 30
    5.1233    1.1086   -0.0260 C   0  0  0  0  0  0  0  0  0 31
    3.9172    0.5453   -0.0078 C   0  0  0  0  0  0  0  0  0 32
    1.2811   -0.7835    0.1547 C   0  0  0  0  0  0  0  0  0 33
    1.2278    0.4443    0.2753 O   0  0  0  0  0  0  0  0  0 34
   -3.3056   -0.4350    0.7206 O   0  0  0  0  0  0  0  0  0 35
  1  2  1  0  0  0
  2  7  1  0  0  0
  2  3  2  0  0  0
  3  4  1  0  0  0
  4  5  2  0  0  0
  4 15  1  0  0  0
  5  6  1  0  0  0
  5  7  1  0  0  0
  7  8  1  0  0  0
  8 13  1  0  0  0
  8  9  2  0  0  0
  9 10  1  0  0  0
 10 11  2  0  0  0
 11 12  1  0  0  0
 11 14  1  0  0  0
 12 13  2  0  0  0
 15 16  2  0  0  0
 15 17  1  0  0  0
 17 18  1  0  0  0
 18 19  1  0  0  0
 19 20  2  0  0  0
 19 35  1  0  0  0
 20 21  1  0  0  0
 21 33  1  0  0  0
 21 22  2  0  0  0
 22 23  1  0  0  0
 22 24  1  0  0  0
 24 25  1  0  0  0
 24 26  1  0  0  0
 26 27  1  0  0  0
 26 33  1  0  0  0
 27 32  1  0  0  0
 27 28  2  0  0  0
 28 29  1  0  0  0
 29 30  2  0  0  0
 30 31  1  0  0  0
 31 32  2  0  0  0
 33 34  2  0  0  0
M  END
> <MolfileName>
Molecule

> <COMPOUND_ID>
5

> <OSM_ID>
OSM-S-06

> <IC50_nM_Assay01>
345

$$$$
Molecule
  DSViewer          3D                             0

 31 34  0  0  0  0  0  0  0  0999 V2000
    3.8269    1.8638   -0.0027 F   0  0  0  0  0  0  0  0  0  1
    2.6924    1.1522   -0.0014 C   0  0  0  0  0  0  0  0  0  2
    2.7390   -0.1742   -0.0016 C   0  0  0  0  0  0  0  0  0  3
    1.5020   -0.9477   -0.0004 C   0  0  0  0  0  0  0  0  0  4
    0.3018   -0.3597    0.0010 C   0  0  0  0  0  0  0  0  0  5
   -0.9571   -1.1705    0.0017 N   0  0  0  0  0  0  0  0  0  6
   -1.0714   -2.6247    0.0016 C   0  0  0  0  0  0  0  0  0  7
    0.0170   -3.6838    0.0017 C   0  0  0  0  0  0  0  0  0  8
   -2.3528   -2.9633    0.0013 C   0  0  0  0  0  0  0  0  0  9
   -3.1439   -1.7380    0.0012 C   0  0  0  0  0  0  0  0  0 10
   -4.6353   -1.6655    0.0006 C   0  0  0  0  0  0  0  0  0 11
   -5.3924   -2.7695    0.0000 C   0  0  0  0  0  0  0  0  0 12
   -4.8795   -4.3089    0.0002 S   0  0  0  0  0  0  0  0  0 13
   -6.3541   -5.1249   -0.0006 C   0  0  0  0  0  0  0  0  0 14
   -6.5070   -6.6072   -0.0003 N   0  0  0  0  0  0  0  0  0 15
   -7.8527   -7.2218    0.0003 C   0  0  0  0  0  0  0  0  0 16
   -9.1204   -6.4072    0.0010 C   0  0  0  0  0  0  0  0  0 17
   -7.9922   -8.4484    0.0005 O   0  0  0  0  0  0  0  0  0 18
   -5.2960   -7.4880   -0.0006 C   0  0  0  0  0  0  0  0  0 19
   -4.0636   -6.9755   -0.0021 C   0  0  0  0  0  0  0  0  0 20
   -2.8717   -7.8214   -0.0023 C   0  0  0  0  0  0  0  0  0 21
   -2.9964   -9.1434   -0.0011 C   0  0  0  0  0  0  0  0  0 22
   -4.3266   -9.7380    0.0004 C   0  0  0  0  0  0  0  0  0 23
   -5.4097   -8.9616    0.0006 C   0  0  0  0  0  0  0  0  0 24
   -7.3119   -4.2520   -0.0011 N   0  0  0  0  0  0  0  0  0 25
   -6.8389   -2.8537   -0.0009 C   0  0  0  0  0  0  0  0  0 26
   -7.5880   -1.8709   -0.0014 O   0  0  0  0  0  0  0  0  0 27
   -2.3318   -0.6861    0.0017 C   0  0  0  0  0  0  0  0  0 28
   -2.8502    0.7361    0.0018 C   0  0  0  0  0  0  0  0  0 29
    0.2777    1.1178    0.0013 C   0  0  0  0  0  0  0  0  0 30
    1.4038    1.8279    0.0001 C   0  0  0  0  0  0  0  0  0 31
  1  2  1  0  0  0
  2 31  1  0  0  0
  2  3  2  0  0  0
  3  4  1  0  0  0
  4  5  2  0  0  0
  5  6  1  0  0  0
  5 30  1  0  0  0
  6 28  1  0  0  0
  6  7  1  0  0  0
  7  8  1  0  0  0
  7  9  2  0  0  0
  9 10  1  0  0  0
 10 11  1  0  0  0
 10 28  2  0  0  0
 11 12  2  0  0  0
 12 26  1  0  0  0
 12 13  1  0  0  0
 13 14  1  0  0  0
 14 15  1  0  0  0
 14 25  2  0  0  0
 15 16  1  0  0  0
 15 19  1  0  0  0
 16 17  1  0  0  0
 16 18  2  0  0  0
 19 24  1  0  0  0
 19 20  2  0  0  0
 20 21  1  0  0  0
 21 22  2  0  0  0
 22 23  1  0  0  0
 23 24  2  0  0  0
 25 26  1  0  0  0
 26 27  2  0  0  0
 28 29  1  0  0  0
 30 31  2  0  0  0
M  END
> <MolfileName>
Molecule

> <COMPOUND_ID>
6

> <OSM_ID>
OSM-S-09

> <IC50_nM_Assay01>
47

$$$$
Molecule
  DSViewer          3D                             0

 28 31  0  0  0  0  0  0  0  0999 V2000
   -0.1525    3.5390   -0.1100 C   0  0  0  0  0  0  0  0  0  1
    0.9710    2.5336   -0.0520 C   0  0  0  0  0  0  0  0  0  2
    2.2650    2.8942   -0.0839 C   0  0  0  0  0  0  0  0  0  3
    3.0930    1.6704    0.0108 C   0  0  0  0  0  0  0  0  0  4
    4.7078    1.7184    0.0206 C   0  0  0  0  0  0  0  0  0  5
    5.6069    0.6967   -0.0246 C   0  0  0  0  0  0  0  0  0  6
    7.1221    0.7318    0.0095 C   0  0  0  0  0  0  0  0  0  7
    7.6845   -0.4571   -0.0008 N   0  0  0  0  0  0  0  0  0  8
    6.7015   -1.5357   -0.0458 C   0  0  0  0  0  0  0  0  0  9
    6.8935   -2.8130   -0.0075 N   0  0  0  0  0  0  0  0  0 10
    5.7912   -3.8286   -0.0203 C   0  0  0  0  0  0  0  0  0 11
    6.0782   -5.1297    0.0016 C   0  0  0  0  0  0  0  0  0 12
    4.9848   -6.1387    0.0036 C   0  0  0  0  0  0  0  0  0 13
    3.7060   -5.7639   -0.0106 C   0  0  0  0  0  0  0  0  0 14
    3.3822   -4.3601   -0.0316 C   0  0  0  0  0  0  0  0  0 15
    4.3614   -3.4609   -0.0375 C   0  0  0  0  0  0  0  0  0 16
    5.2706   -0.8479   -0.1274 S   0  0  0  0  0  0  0  0  0 17
    7.8570    1.9149    0.0550 O   0  0  0  0  0  0  0  0  0 18
    2.2204    0.6296    0.1134 C   0  0  0  0  0  0  0  0  0 19
    2.5576   -0.7564    0.3068 C   0  0  0  0  0  0  0  0  0 20
    0.8608    1.1025    0.0384 N   0  0  0  0  0  0  0  0  0 21
   -0.4235    0.2116    0.0214 C   0  0  0  0  0  0  0  0  0 22
   -0.3501   -1.1275   -0.0046 C   0  0  0  0  0  0  0  0  0 23
   -1.4874   -2.0079   -0.0187 C   0  0  0  0  0  0  0  0  0 24
   -2.7013   -1.4930   -0.0115 C   0  0  0  0  0  0  0  0  0 25
   -2.8622   -0.0328    0.0049 C   0  0  0  0  0  0  0  0  0 26
   -1.7923    0.7746    0.0189 C   0  0  0  0  0  0  0  0  0 27
   -3.7646   -2.3090   -0.0197 F   0  0  0  0  0  0  0  0  0 28
  1  2  1  0  0  0
  2 21  1  0  0  0
  2  3  2  0  0  0
  3  4  1  0  0  0
  4  5  1  0  0  0
  4 19  2  0  0  0
  5  6  2  0  0  0
  6 17  1  0  0  0
  6  7  1  0  0  0
  7  8  2  0  0  0
  7 18  1  0  0  0
  8  9  1  0  0  0
  9 10  2  0  0  0
  9 17  1  0  0  0
 10 11  1  0  0  0
 11 16  1  0  0  0
 11 12  2  0  0  0
 12 13  1  0  0  0
 13 14  2  0  0  0
 14 15  1  0  0  0
 15 16  2  0  0  0
 19 20  1  0  0  0
 19 21  1  0  0  0
 21 22  1  0  0  0
 22 27  1  0  0  0
 22 23  2  0  0  0
 23 24  1  0  0  0
 24 25  2  0  0  0
 25 26  1  0  0  0
 25 28  1  0  0  0
 26 27  2  0  0  0
M  END
> <MolfileName>
Molecule

> <COMPOUND_ID>
7

> <OSM_ID>
OSM-S-10

> <IC50_nM_Assay01>
176

$$$$
Molecule
  DSViewer          3D                             0

 16 17  0  0  0  0  0  0  0  0999 V2000
    0.8633    2.5980    0.0000 C   0  0  0  0  0  0  0  0  0  1
    1.8949    1.4904   -0.0001 C   0  0  0  0  0  0  0  0  0  2
    3.1983    1.7604   -0.0002 C   0  0  0  0  0  0  0  0  0  3
    3.9099    0.4920   -0.0002 C   0  0  0  0  0  0  0  0  0  4
    3.0364   -0.5214   -0.0001 C   0  0  0  0  0  0  0  0  0  5
    3.4441   -1.9898    0.0000 C   0  0  0  0  0  0  0  0  0  6
    1.6917    0.0461    0.0000 N   0  0  0  0  0  0  0  0  0  7
    0.3766   -0.6943    0.0002 C   0  0  0  0  0  0  0  0  0  8
    0.3270   -2.0301    0.0010 C   0  0  0  0  0  0  0  0  0  9
   -0.9450   -2.7557    0.0012 C   0  0  0  0  0  0  0  0  0 10
   -2.0943   -2.0896    0.0006 C   0  0  0  0  0  0  0  0  0 11
   -2.0792   -0.6360   -0.0002 C   0  0  0  0  0  0  0  0  0 12
   -0.9209    0.0207   -0.0004 C   0  0  0  0  0  0  0  0  0 13
    5.3927    0.4059   -0.0004 C   0  0  0  0  0  0  0  0  0 14
    5.9853   -0.6790   -0.0004 O   0  0  0  0  0  0  0  0  0 15
    6.1355    1.5813   -0.0005 O   0  0  0  0  0  0  0  0  0 16
  1  2  1  0  0  0
  2  7  1  0  0  0
  2  3  2  0  0  0
  3  4  1  0  0  0
  4  5  2  0  0  0
  4 14  1  0  0  0
  5  6  1  0  0  0
  5  7  1  0  0  0
  7  8  1  0  0  0
  8 13  1  0  0  0
  8  9  2  0  0  0
  9 10  1  0  0  0
 10 11  2  0  0  0
 11 12  1  0  0  0
 12 13  2  0  0  0
 14 15  2  0  0  0
 14 16  1  0  0  0
M  END
> <MolfileName>
Molecule

> <COMPOUND_ID>
8

> <OSM_ID>
OSM-S-12

> <IC50_nM_Assay01>
>100,000

$$$$
Molecule
  DSViewer          3D                             0

 17 18  0  0  0  0  0  0  0  0999 V2000
    5.9787    2.3111    0.0001 C   0  0  0  0  0  0  0  0  0  1
    4.6639    1.5879    0.0000 C   0  0  0  0  0  0  0  0  0  2
    4.6317    0.2600    0.0004 C   0  0  0  0  0  0  0  0  0  3
    3.3477   -0.4446    0.0003 C   0  0  0  0  0  0  0  0  0  4
    2.1837    0.2128   -0.0001 C   0  0  0  0  0  0  0  0  0  5
    2.2539    1.6931   -0.0005 C   0  0  0  0  0  0  0  0  0  6
    3.4193    2.3364   -0.0005 C   0  0  0  0  0  0  0  0  0  7
    0.8661   -0.5231   -0.0001 N   0  0  0  0  0  0  0  0  0  8
    0.6551   -1.9701    0.0002 C   0  0  0  0  0  0  0  0  0  9
    1.6805   -3.0887    0.0002 C   0  0  0  0  0  0  0  0  0 10
   -0.6501   -2.2311    0.0004 C   0  0  0  0  0  0  0  0  0 11
   -1.3526   -0.9575    0.0002 C   0  0  0  0  0  0  0  0  0 12
   -0.4720    0.0497   -0.0001 C   0  0  0  0  0  0  0  0  0 13
   -0.8669    1.5175   -0.0003 C   0  0  0  0  0  0  0  0  0 14
   -2.8348   -0.8603    0.0004 C   0  0  0  0  0  0  0  0  0 15
   -3.4192    0.2291    0.0003 O   0  0  0  0  0  0  0  0  0 16
   -3.5865   -2.0299    0.0008 O   0  0  0  0  0  0  0  0  0 17
  1  2  1  0  0  0
  2  7  1  0  0  0
  2  3  2  0  0  0
  3  4  1  0  0  0
  4  5  2  0  0  0
  5  6  1  0  0  0
  5  8  1  0  0  0
  6  7  2  0  0  0
  8 13  1  0  0  0
  8  9  1  0  0  0
  9 10  1  0  0  0
  9 11  2  0  0  0
 11 12  1  0  0  0
 12 13  2  0  0  0
 12 15  1  0  0  0
 13 14  1  0  0  0
 15 16  2  0  0  0
 15 17  1  0  0  0
M  END
> <MolfileName>
Molecule

> <COMPOUND_ID>
9

> <OSM_ID>
OSM-S-13

> <IC50_nM_Assay01>
>100,000

$$$$
Molecule
  DSViewer          3D                             0

 20 21  0  0  0  0  0  0  0  0999 V2000
    1.1630    2.7602   -0.0330 C   0  0  0  0  0  0  0  0  0  1
    2.2083    1.6655   -0.0322 C   0  0  0  0  0  0  0  0  0  2
    3.5085    1.9510   -0.0300 C   0  0  0  0  0  0  0  0  0  3
    4.2351    0.6906   -0.0307 C   0  0  0  0  0  0  0  0  0  4
    3.3739   -0.3326   -0.0349 C   0  0  0  0  0  0  0  0  0  5
    3.8000   -1.7965   -0.0372 C   0  0  0  0  0  0  0  0  0  6
    2.0226    0.2193   -0.0329 N   0  0  0  0  0  0  0  0  0  7
    0.7181   -0.5371   -0.0181 C   0  0  0  0  0  0  0  0  0  8
    0.6887   -1.8731   -0.0168 C   0  0  0  0  0  0  0  0  0  9
   -0.5676   -2.6169    0.0077 C   0  0  0  0  0  0  0  0  0 10
   -1.7250   -1.9682    0.0304 C   0  0  0  0  0  0  0  0  0 11
   -1.7371   -0.5156    0.0272 C   0  0  0  0  0  0  0  0  0 12
   -0.5900    0.1596    0.0040 C   0  0  0  0  0  0  0  0  0 13
   -3.0097   -2.7334    0.0630 C   0  0  0  0  0  0  0  0  0 14
   -3.0908   -3.5046   -1.0772 F   0  0  0  0  0  0  0  0  0 15
   -2.9766   -3.6114    1.1264 F   0  0  0  0  0  0  0  0  0 16
   -4.0894   -1.8804    0.1533 F   0  0  0  0  0  0  0  0  0 17
    5.7185    0.6206   -0.0260 C   0  0  0  0  0  0  0  0  0 18
    6.3229   -0.4580   -0.0263 O   0  0  0  0  0  0  0  0  0 19
    6.4485    1.8035   -0.0167 O   0  0  0  0  0  0  0  0  0 20
  1  2  1  0  0  0
  2  7  1  0  0  0
  2  3  2  0  0  0
  3  4  1  0  0  0
  4  5  2  0  0  0
  4 18  1  0  0  0
  5  6  1  0  0  0
  5  7  1  0  0  0
  7  8  1  0  0  0
  8 13  1  0  0  0
  8  9  2  0  0  0
  9 10  1  0  0  0
 10 11  2  0  0  0
 11 12  1  0  0  0
 11 14  1  0  0  0
 12 13  2  0  0  0
 14 15  1  0  0  0
 14 16  1  0  0  0
 14 17  1  0  0  0
 18 19  2  0  0  0
 18 20  1  0  0  0
M  END
> <MolfileName>
Molecule

> <COMPOUND_ID>
10

> <OSM_ID>
OSM-S-14

> <IC50_nM_Assay01>
>100,000

$$$$
Molecule
  DSViewer          3D                             0

 27 29  0  0  0  0  0  0  0  0999 V2000
    7.1680   -2.9938   -2.3229 C   0  0  0  0  0  0  0  0  0  1
    6.5280   -1.9651   -3.2194 C   0  0  0  0  0  0  0  0  0  2
    5.3656   -1.2900   -3.1181 C   0  0  0  0  0  0  0  0  0  3
    5.3182   -0.4257   -4.3296 C   0  0  0  0  0  0  0  0  0  4
    4.4050    0.3489   -4.6059 O   0  0  0  0  0  0  0  0  0  5
    6.4436   -0.6429   -5.0612 N   0  0  0  0  0  0  0  0  0  6
    6.7703    0.0339   -6.3494 C   0  0  0  0  0  0  0  0  0  7
    5.9335    0.9276   -6.8701 C   0  0  0  0  0  0  0  0  0  8
    6.2452    1.6034   -8.1435 C   0  0  0  0  0  0  0  0  0  9
    7.3731    1.3303   -8.7968 C   0  0  0  0  0  0  0  0  0 10
    8.3035    0.3597   -8.2516 C   0  0  0  0  0  0  0  0  0 11
    8.0252   -0.2513   -7.1035 C   0  0  0  0  0  0  0  0  0 12
    7.1852   -1.5878   -4.3780 N   0  0  0  0  0  0  0  0  0 13
    8.4674   -2.1694   -4.7249 C   0  0  0  0  0  0  0  0  0 14
    4.2498   -1.2914   -2.0791 N   0  0  0  0  0  0  0  0  0 15
    4.1636   -1.9822   -0.9849 C   0  0  0  0  0  0  0  0  0 16
    3.0048   -1.9071   -0.0203 C   0  0  0  0  0  0  0  0  0 17
    1.9065   -1.0361   -0.2678 N   0  0  0  0  0  0  0  0  0 18
    1.0153   -1.0916    0.6429 C   0  0  0  0  0  0  0  0  0 19
   -0.2016   -0.2994    0.6220 C   0  0  0  0  0  0  0  0  0 20
   -1.0653   -0.4376    1.6278 C   0  0  0  0  0  0  0  0  0 21
   -2.3007    0.3367    1.6508 C   0  0  0  0  0  0  0  0  0 22
   -2.5647    1.1855    0.6604 C   0  0  0  0  0  0  0  0  0 23
   -1.6133    1.3385   -0.4486 C   0  0  0  0  0  0  0  0  0 24
   -0.4847    0.6292   -0.4667 C   0  0  0  0  0  0  0  0  0 25
    1.2166   -1.9569    1.7165 O   0  0  0  0  0  0  0  0  0 26
    5.1172   -2.8527   -0.5902 O   0  0  0  0  0  0  0  0  0 27
  1  2  1  0  0  0
  2 13  1  0  0  0
  2  3  2  0  0  0
  3  4  1  0  0  0
  3 15  1  0  0  0
  4  5  2  0  0  0
  4  6  1  0  0  0
  6  7  1  0  0  0
  6 13  1  0  0  0
  7 12  1  0  0  0
  7  8  2  0  0  0
  8  9  1  0  0  0
  9 10  2  0  0  0
 10 11  1  0  0  0
 11 12  2  0  0  0
 13 14  1  0  0  0
 15 16  2  0  0  0
 16 17  1  0  0  0
 16 27  1  0  0  0
 17 18  1  0  0  0
 18 19  2  0  0  0
 19 20  1  0  0  0
 19 26  1  0  0  0
 20 25  1  0  0  0
 20 21  2  0  0  0
 21 22  1  0  0  0
 22 23  2  0  0  0
 23 24  1  0  0  0
 24 25  2  0  0  0
M  END
> <MolfileName>
Molecule

> <COMPOUND_ID>
11

> <OSM_ID>
OSM-S-16

> <IC50_nM_Assay01>
>100,000

$$$$
Molecule
  DSViewer          3D                             0

 21 22  0  0  0  0  0  0  0  0999 V2000
    0.7808    2.8242    0.0551 C   0  0  0  0  0  0  0  0  0  1
    1.6713    1.6008    0.0210 C   0  0  0  0  0  0  0  0  0  2
    2.9961    1.7017    0.0341 C   0  0  0  0  0  0  0  0  0  3
    3.5943    0.3659   -0.0072 C   0  0  0  0  0  0  0  0  0  4
    2.5503   -0.5466   -0.0620 C   0  0  0  0  0  0  0  0  0  5
    2.6448   -2.0342   -0.1844 C   0  0  0  0  0  0  0  0  0  6
    1.2926    0.2172   -0.0244 N   0  0  0  0  0  0  0  0  0  7
   -0.1297   -0.3738   -0.0170 C   0  0  0  0  0  0  0  0  0  8
   -0.3476   -1.6838    0.0005 C   0  0  0  0  0  0  0  0  0  9
   -1.6745   -2.2725    0.0110 C   0  0  0  0  0  0  0  0  0 10
   -2.7398   -1.4850    0.0060 C   0  0  0  0  0  0  0  0  0 11
   -2.5637   -0.0377   -0.0084 C   0  0  0  0  0  0  0  0  0 12
   -1.3373    0.4943   -0.0187 C   0  0  0  0  0  0  0  0  0 13
   -3.9658   -2.0252    0.0140 F   0  0  0  0  0  0  0  0  0 14
    5.1772    0.2446   -0.0060 C   0  0  0  0  0  0  0  0  0 15
    5.9846   -0.7574    0.1338 N   0  0  0  0  0  0  0  0  0 16
    5.6658   -2.1315    0.3846 C   0  0  0  0  0  0  0  0  0 17
    6.7299   -3.1218    0.0440 C   0  0  0  0  0  0  0  0  0 18
    6.4295   -4.3579    0.0244 N   0  0  0  0  0  0  0  0  0 19
    8.0219   -2.7163   -0.2446 O   0  0  0  0  0  0  0  0  0 20
    5.8250    1.4780   -0.1554 O   0  0  0  0  0  0  0  0  0 21
  1  2  1  0  0  0
  2  7  1  0  0  0
  2  3  2  0  0  0
  3  4  1  0  0  0
  4  5  2  0  0  0
  4 15  1  0  0  0
  5  6  1  0  0  0
  5  7  1  0  0  0
  7  8  1  0  0  0
  8 13  1  0  0  0
  8  9  2  0  0  0
  9 10  1  0  0  0
 10 11  2  0  0  0
 11 12  1  0  0  0
 11 14  1  0  0  0
 12 13  2  0  0  0
 15 16  2  0  0  0
 15 21  1  0  0  0
 16 17  1  0  0  0
 17 18  1  0  0  0
 18 19  2  0  0  0
 18 20  1  0  0  0
M  END
> <MolfileName>
Molecule

> <COMPOUND_ID>
12

> <OSM_ID>
OSM-S-19

> <IC50_nM_Assay01>
>100000

$$$$
Molecule
  DSViewer          3D                             0

 15 16  0  0  0  0  0  0  0  0999 V2000
    0.9412    2.6332    0.0008 C   0  0  0  0  0  0  0  0  0  1
    1.9743    1.5269    0.0004 C   0  0  0  0  0  0  0  0  0  2
    3.2774    1.7985    0.0004 C   0  0  0  0  0  0  0  0  0  3
    3.9904    0.5305    0.0002 C   0  0  0  0  0  0  0  0  0  4
    5.4731    0.4425    0.0000 C   0  0  0  0  0  0  0  0  0  5
    6.0792   -0.6350   -0.0003 O   0  0  0  0  0  0  0  0  0  6
    3.1181   -0.4836    0.0002 C   0  0  0  0  0  0  0  0  0  7
    3.5290   -1.9509   -0.0001 C   0  0  0  0  0  0  0  0  0  8
    1.7729    0.0822    0.0003 N   0  0  0  0  0  0  0  0  0  9
    0.4588   -0.6599    0.0001 C   0  0  0  0  0  0  0  0  0 10
    0.4109   -1.9957    0.0010 C   0  0  0  0  0  0  0  0  0 11
   -0.8604   -2.7228    0.0008 C   0  0  0  0  0  0  0  0  0 12
   -2.0105   -2.0580   -0.0004 C   0  0  0  0  0  0  0  0  0 13
   -1.9971   -0.6044   -0.0014 C   0  0  0  0  0  0  0  0  0 14
   -0.8395    0.0537   -0.0012 C   0  0  0  0  0  0  0  0  0 15
  1  2  1  0  0  0
  2  9  1  0  0  0
  2  3  2  0  0  0
  3  4  1  0  0  0
  4  5  1  0  0  0
  4  7  2  0  0  0
  5  6  2  0  0  0
  7  8  1  0  0  0
  7  9  1  0  0  0
  9 10  1  0  0  0
 10 15  1  0  0  0
 10 11  2  0  0  0
 11 12  1  0  0  0
 12 13  2  0  0  0
 13 14  1  0  0  0
 14 15  2  0  0  0
M  END
> <MolfileName>
Molecule

> <COMPOUND_ID>
14

> <OSM_ID>
OSM-S-28

> <IC50_nM_Assay01>
>100000

$$$$
Molecule
  DSViewer          3D                             0

 16 17  0  0  0  0  0  0  0  0999 V2000
    5.8946    2.2774    0.0008 C   0  0  0  0  0  0  0  0  0  1
    4.5801    1.5537    0.0003 C   0  0  0  0  0  0  0  0  0  2
    4.5485    0.2259    0.0010 C   0  0  0  0  0  0  0  0  0  3
    3.2650   -0.4791    0.0006 C   0  0  0  0  0  0  0  0  0  4
    2.1006    0.1776   -0.0004 C   0  0  0  0  0  0  0  0  0  5
    2.1698    1.6579   -0.0012 C   0  0  0  0  0  0  0  0  0  6
    3.3349    2.3018   -0.0009 C   0  0  0  0  0  0  0  0  0  7
    0.7838   -0.5595   -0.0005 N   0  0  0  0  0  0  0  0  0  8
    0.5742   -2.0068   -0.0002 C   0  0  0  0  0  0  0  0  0  9
    1.6006   -3.1245   -0.0004 C   0  0  0  0  0  0  0  0  0 10
   -0.7309   -2.2691    0.0002 C   0  0  0  0  0  0  0  0  0 11
   -1.4344   -0.9958    0.0002 C   0  0  0  0  0  0  0  0  0 12
   -2.9163   -0.8966    0.0007 C   0  0  0  0  0  0  0  0  0 13
   -3.5142    0.1856    0.0010 O   0  0  0  0  0  0  0  0  0 14
   -0.5548    0.0119   -0.0003 C   0  0  0  0  0  0  0  0  0 15
   -0.9524    1.4787   -0.0005 C   0  0  0  0  0  0  0  0  0 16
  1  2  1  0  0  0
  2  7  1  0  0  0
  2  3  2  0  0  0
  3  4  1  0  0  0
  4  5  2  0  0  0
  5  6  1  0  0  0
  5  8  1  0  0  0
  6  7  2  0  0  0
  8 15  1  0  0  0
  8  9  1  0  0  0
  9 10  1  0  0  0
  9 11  2  0  0  0
 11 12  1  0  0  0
 12 13  1  0  0  0
 12 15  2  0  0  0
 13 14  2  0  0  0
 15 16  1  0  0  0
M  END
> <MolfileName>
Molecule

> <COMPOUND_ID>
15

> <OSM_ID>
OSM-S-29

> <IC50_nM_Assay01>
could not determine

$$$$
Molecule
  DSViewer          3D                             0

 19 20  0  0  0  0  0  0  0  0999 V2000
    5.3643    5.2412    0.9143 C   0  0  0  0  0  0  0  0  0  1
    5.6748    4.3739   -0.3345 C   0  0  0  0  0  0  0  0  0  2
    5.2244    3.0051   -0.1714 O   0  0  0  0  0  0  0  0  0  3
    3.8214    2.8982   -0.1945 C   0  0  0  0  0  0  0  0  0  4
    3.1289    3.9116   -0.3537 O   0  0  0  0  0  0  0  0  0  5
    3.1923    1.5507   -0.0797 C   0  0  0  0  0  0  0  0  0  6
    3.9622    0.3150    0.0221 C   0  0  0  0  0  0  0  0  0  7
    3.0919   -0.6937    0.0808 C   0  0  0  0  0  0  0  0  0  8
    3.5573   -2.1346    0.1866 C   0  0  0  0  0  0  0  0  0  9
    1.7276   -0.1693    0.0266 N   0  0  0  0  0  0  0  0  0 10
    1.8858    1.2728   -0.0692 C   0  0  0  0  0  0  0  0  0 11
    0.7972    2.3311   -0.1609 C   0  0  0  0  0  0  0  0  0 12
    0.4364   -0.9536    0.0317 C   0  0  0  0  0  0  0  0  0 13
    0.4282   -2.2899    0.0475 C   0  0  0  0  0  0  0  0  0 14
   -0.8262   -3.0521    0.0381 C   0  0  0  0  0  0  0  0  0 15
   -1.9938   -2.4175    0.0131 C   0  0  0  0  0  0  0  0  0 16
   -3.2778   -3.1940   -0.0007 C   0  0  0  0  0  0  0  0  0 17
   -2.0220   -0.9681   -0.0018 C   0  0  0  0  0  0  0  0  0 18
   -0.8838   -0.2798    0.0068 C   0  0  0  0  0  0  0  0  0 19
  1  2  1  0  0  0
  2  3  1  0  0  0
  3  4  1  0  0  0
  4  5  2  0  0  0
  4  6  1  0  0  0
  6 11  2  0  0  0
  6  7  1  0  0  0
  7  8  2  0  0  0
  8  9  1  0  0  0
  8 10  1  0  0  0
 10 11  1  0  0  0
 10 13  1  0  0  0
 11 12  1  0  0  0
 13 19  1  0  0  0
 13 14  2  0  0  0
 14 15  1  0  0  0
 15 16  2  0  0  0
 16 17  1  0  0  0
 16 18  1  0  0  0
 18 19  2  0  0  0
M  END
> <MolfileName>
Molecule

> <COMPOUND_ID>
16

> <OSM_ID>
OSM-S-30

> <IC50_nM_Assay01>
>100000

$$$$
Molecule
  DSViewer          3D                             0

 18 19  0  0  0  0  0  0  0  0999 V2000
    5.2740    5.1861    0.9066 C   0  0  0  0  0  0  0  0  0  1
    5.5844    4.3138   -0.3385 C   0  0  0  0  0  0  0  0  0  2
    5.1339    2.9452   -0.1714 O   0  0  0  0  0  0  0  0  0  3
    3.7302    2.8373   -0.1920 C   0  0  0  0  0  0  0  0  0  4
    3.0365    3.8495   -0.3510 O   0  0  0  0  0  0  0  0  0  5
    3.1033    1.4888   -0.0772 C   0  0  0  0  0  0  0  0  0  6
    3.8752    0.2549    0.0230 C   0  0  0  0  0  0  0  0  0  7
    3.0073   -0.7556    0.0809 C   0  0  0  0  0  0  0  0  0  8
    3.4767   -2.1956    0.1850 C   0  0  0  0  0  0  0  0  0  9
    1.6417   -0.2340    0.0275 N   0  0  0  0  0  0  0  0  0 10
    1.7964    1.2083   -0.0662 C   0  0  0  0  0  0  0  0  0 11
    0.7055    2.2636   -0.1560 C   0  0  0  0  0  0  0  0  0 12
    0.3525   -1.0221    0.0310 C   0  0  0  0  0  0  0  0  0 13
    0.3508   -2.3583    0.0455 C   0  0  0  0  0  0  0  0  0 14
   -0.8979   -3.1276    0.0368 C   0  0  0  0  0  0  0  0  0 15
   -2.0702   -2.5022    0.0134 C   0  0  0  0  0  0  0  0  0 16
   -2.1063   -1.0507   -0.0015 C   0  0  0  0  0  0  0  0  0 17
   -0.9718   -0.3549    0.0066 C   0  0  0  0  0  0  0  0  0 18
  1  2  1  0  0  0
  2  3  1  0  0  0
  3  4  1  0  0  0
  4  5  2  0  0  0
  4  6  1  0  0  0
  6 11  2  0  0  0
  6  7  1  0  0  0
  7  8  2  0  0  0
  8  9  1  0  0  0
  8 10  1  0  0  0
 10 11  1  0  0  0
 10 13  1  0  0  0
 11 12  1  0  0  0
 13 18  1  0  0  0
 13 14  2  0  0  0
 14 15  1  0  0  0
 15 16  2  0  0  0
 16 17  1  0  0  0
 17 18  2  0  0  0
M  END
> <MolfileName>
Molecule

> <COMPOUND_ID>
17

> <OSM_ID>
OSM-S-31

> <IC50_nM_Assay01>
>100000

$$$$
Molecule
  DSViewer          3D                             0

 22 23  0  0  0  0  0  0  0  0999 V2000
    5.5553    5.4224    0.8989 C   0  0  0  0  0  0  0  0  0  1
    5.8568    4.5497   -0.3470 C   0  0  0  0  0  0  0  0  0  2
    5.4113    3.1815   -0.1733 O   0  0  0  0  0  0  0  0  0  3
    4.0082    3.0688   -0.1840 C   0  0  0  0  0  0  0  0  0  4
    3.3085    4.0772   -0.3403 O   0  0  0  0  0  0  0  0  0  5
    3.3918    1.7180   -0.0648 C   0  0  0  0  0  0  0  0  0  6
    4.1741    0.4919    0.0394 C   0  0  0  0  0  0  0  0  0  7
    3.3160   -0.5261    0.0996 C   0  0  0  0  0  0  0  0  0  8
    3.7989   -1.9611    0.2075 C   0  0  0  0  0  0  0  0  0  9
    1.9464   -0.0175    0.0423 N   0  0  0  0  0  0  0  0  0 10
    2.0874    1.4268   -0.0538 C   0  0  0  0  0  0  0  0  0 11
    0.9878    2.4735   -0.1477 C   0  0  0  0  0  0  0  0  0 12
    0.6661   -0.8169    0.0377 C   0  0  0  0  0  0  0  0  0 13
    0.6750   -2.1534    0.0573 C   0  0  0  0  0  0  0  0  0 14
   -0.5678   -2.9308    0.0353 C   0  0  0  0  0  0  0  0  0 15
   -1.7417   -2.3098   -0.0062 C   0  0  0  0  0  0  0  0  0 16
   -1.7890   -0.8630   -0.0251 C   0  0  0  0  0  0  0  0  0 17
   -0.6608   -0.1602   -0.0046 C   0  0  0  0  0  0  0  0  0 18
   -3.0129   -3.0972   -0.0343 C   0  0  0  0  0  0  0  0  0 19
   -3.2759   -3.5273    1.2485 F   0  0  0  0  0  0  0  0  0 20
   -2.8491   -4.2208   -0.8167 F   0  0  0  0  0  0  0  0  0 21
   -4.0594   -2.3097   -0.4691 F   0  0  0  0  0  0  0  0  0 22
  1  2  1  0  0  0
  2  3  1  0  0  0
  3  4  1  0  0  0
  4  5  2  0  0  0
  4  6  1  0  0  0
  6 11  2  0  0  0
  6  7  1  0  0  0
  7  8  2  0  0  0
  8  9  1  0  0  0
  8 10  1  0  0  0
 10 11  1  0  0  0
 10 13  1  0  0  0
 11 12  1  0  0  0
 13 18  1  0  0  0
 13 14  2  0  0  0
 14 15  1  0  0  0
 15 16  2  0  0  0
 16 17  1  0  0  0
 16 19  1  0  0  0
 17 18  2  0  0  0
 19 20  1  0  0  0
 19 21  1  0  0  0
 19 22  1  0  0  0
M  END
> <MolfileName>
Molecule

> <COMPOUND_ID>
18

> <OSM_ID>
OSM-S-32

> <IC50_nM_Assay01>
>100000

$$$$
Molecule
  DSViewer          3D                             0

 27 30  0  0  0  0  0  0  0  0999 V2000
   -0.1720    3.5819   -0.0921 C   0  0  0  0  0  0  0  0  0  1
    0.9252    2.5463   -0.0421 C   0  0  0  0  0  0  0  0  0  2
    2.2249    2.8812   -0.0660 C   0  0  0  0  0  0  0  0  0  3
    3.0220    1.6361    0.0112 C   0  0  0  0  0  0  0  0  0  4
    4.6336    1.6806    0.0184 C   0  0  0  0  0  0  0  0  0  5
    5.5252    0.6478   -0.0176 C   0  0  0  0  0  0  0  0  0  6
    7.0378    0.6866    0.0086 C   0  0  0  0  0  0  0  0  0  7
    7.5978   -0.5080   -0.0012 N   0  0  0  0  0  0  0  0  0  8
    6.6099   -1.5793   -0.0368 C   0  0  0  0  0  0  0  0  0  9
    6.8023   -2.8574   -0.0078 N   0  0  0  0  0  0  0  0  0 10
    5.7006   -3.8685   -0.0176 C   0  0  0  0  0  0  0  0  0 11
    5.9881   -5.1701    0.0014 C   0  0  0  0  0  0  0  0  0 12
    4.8951   -6.1778    0.0034 C   0  0  0  0  0  0  0  0  0 13
    3.6165   -5.8026   -0.0093 C   0  0  0  0  0  0  0  0  0 14
    3.2924   -4.3986   -0.0279 C   0  0  0  0  0  0  0  0  0 15
    4.2715   -3.5002   -0.0329 C   0  0  0  0  0  0  0  0  0 16
    5.1771   -0.8882   -0.0983 S   0  0  0  0  0  0  0  0  0 17
    7.7774    1.8646    0.0452 O   0  0  0  0  0  0  0  0  0 18
    2.1370    0.6189    0.0911 C   0  0  0  0  0  0  0  0  0 19
    2.4401   -0.7923    0.2427 C   0  0  0  0  0  0  0  0  0 20
    0.7847    1.1111    0.0318 N   0  0  0  0  0  0  0  0  0 21
   -0.5219    0.2676    0.0181 C   0  0  0  0  0  0  0  0  0 22
   -0.5014   -1.0821   -0.0001 C   0  0  0  0  0  0  0  0  0 23
   -1.6937   -1.9057   -0.0158 C   0  0  0  0  0  0  0  0  0 24
   -2.8834   -1.3287   -0.0160 C   0  0  0  0  0  0  0  0  0 25
   -2.9660    0.1297   -0.0030 C   0  0  0  0  0  0  0  0  0 26
   -1.8607    0.8790    0.0121 C   0  0  0  0  0  0  0  0  0 27
  1  2  1  0  0  0
  2 21  1  0  0  0
  2  3  2  0  0  0
  3  4  1  0  0  0
  4  5  1  0  0  0
  4 19  2  0  0  0
  5  6  2  0  0  0
  6 17  1  0  0  0
  6  7  1  0  0  0
  7  8  2  0  0  0
  7 18  1  0  0  0
  8  9  1  0  0  0
  9 10  2  0  0  0
  9 17  1  0  0  0
 10 11  1  0  0  0
 11 16  1  0  0  0
 11 12  2  0  0  0
 12 13  1  0  0  0
 13 14  2  0  0  0
 14 15  1  0  0  0
 15 16  2  0  0  0
 19 20  1  0  0  0
 19 21  1  0  0  0
 21 22  1  0  0  0
 22 27  1  0  0  0
 22 23  2  0  0  0
 23 24  1  0  0  0
 24 25  2  0  0  0
 25 26  1  0  0  0
 26 27  2  0  0  0
M  END
> <MolfileName>
Molecule

> <COMPOUND_ID>
19

> <OSM_ID>
OSM-S-35

> <IC50_nM_Assay01>
26

$$$$
Molecule
  DSViewer          3D                             0

 28 31  0  0  0  0  0  0  0  0999 V2000
    6.9696    2.5415    0.0050 C   0  0  0  0  0  0  0  0  0  1
    5.7292    1.6996    0.0020 C   0  0  0  0  0  0  0  0  0  2
    5.8080    0.3701   -0.0057 C   0  0  0  0  0  0  0  0  0  3
    4.5833   -0.4592   -0.0094 C   0  0  0  0  0  0  0  0  0  4
    3.3699    0.1018   -0.0063 C   0  0  0  0  0  0  0  0  0  5
    3.3462    1.5943    0.0040 C   0  0  0  0  0  0  0  0  0  6
    4.4439    2.3350    0.0076 C   0  0  0  0  0  0  0  0  0  7
    2.0809   -0.7397   -0.0092 N   0  0  0  0  0  0  0  0  0  8
    1.9536   -2.1808    0.0105 C   0  0  0  0  0  0  0  0  0  9
    3.0522   -3.2234    0.0257 C   0  0  0  0  0  0  0  0  0 10
    0.6625   -2.5204    0.0159 C   0  0  0  0  0  0  0  0  0 11
   -0.1438   -1.2911   -0.0048 C   0  0  0  0  0  0  0  0  0 12
   -1.7213   -1.3750   -0.0084 C   0  0  0  0  0  0  0  0  0 13
   -2.6534   -0.3959    0.0083 C   0  0  0  0  0  0  0  0  0 14
   -4.1538   -0.5490   -0.0045 C   0  0  0  0  0  0  0  0  0 15
   -4.8040    0.5869    0.0041 N   0  0  0  0  0  0  0  0  0 16
   -3.9004    1.7208    0.0266 C   0  0  0  0  0  0  0  0  0 17
   -4.1167    2.9744    0.0285 N   0  0  0  0  0  0  0  0  0 18
   -5.3238    3.6319    0.0117 C   0  0  0  0  0  0  0  0  0 19
   -6.4869    2.9895    0.0015 C   0  0  0  0  0  0  0  0  0 20
   -7.7313    3.7584   -0.0139 C   0  0  0  0  0  0  0  0  0 21
   -7.6969    5.0913   -0.0177 C   0  0  0  0  0  0  0  0  0 22
   -6.4167    5.7927   -0.0070 C   0  0  0  0  0  0  0  0  0 23
   -5.2877    5.0948    0.0070 C   0  0  0  0  0  0  0  0  0 24
   -2.4035    1.1871    0.0454 S   0  0  0  0  0  0  0  0  0 25
   -4.7916   -1.7872   -0.0262 O   0  0  0  0  0  0  0  0  0 26
    0.7205   -0.2384   -0.0254 C   0  0  0  0  0  0  0  0  0 27
    0.3752    1.2026   -0.0669 C   0  0  0  0  0  0  0  0  0 28
  1  2  1  0  0  0
  2  7  1  0  0  0
  2  3  2  0  0  0
  3  4  1  0  0  0
  4  5  2  0  0  0
  5  6  1  0  0  0
  5  8  1  0  0  0
  6  7  2  0  0  0
  8 27  1  0  0  0
  8  9  1  0  0  0
  9 10  1  0  0  0
  9 11  2  0  0  0
 11 12  1  0  0  0
 12 13  1  0  0  0
 12 27  2  0  0  0
 13 14  2  0  0  0
 14 25  1  0  0  0
 14 15  1  0  0  0
 15 16  2  0  0  0
 15 26  1  0  0  0
 16 17  1  0  0  0
 17 18  2  0  0  0
 17 25  1  0  0  0
 18 19  1  0  0  0
 19 24  1  0  0  0
 19 20  2  0  0  0
 20 21  1  0  0  0
 21 22  2  0  0  0
 22 23  1  0  0  0
 23 24  2  0  0  0
 27 28  1  0  0  0
M  END
> <MolfileName>
Molecule

> <COMPOUND_ID>
20

> <OSM_ID>
OSM-S-37

> <IC50_nM_Assay01>
15

$$$$
Molecule
  DSViewer          3D                             0

 31 34  0  0  0  0  0  0  0  0999 V2000
   -0.0043    3.3934    0.5783 C   0  0  0  0  0  0  0  0  0  1
    1.1587    2.4920    0.2401 C   0  0  0  0  0  0  0  0  0  2
    2.4337    2.8926    0.3435 C   0  0  0  0  0  0  0  0  0  3
    3.2960    1.7697   -0.0854 C   0  0  0  0  0  0  0  0  0  4
    4.8581    1.8869   -0.1142 C   0  0  0  0  0  0  0  0  0  5
    5.7208    0.8516    0.0363 C   0  0  0  0  0  0  0  0  0  6
    7.2222    0.8620   -0.0436 C   0  0  0  0  0  0  0  0  0  7
    7.7630   -0.3324    0.0312 N   0  0  0  0  0  0  0  0  0  8
    6.7681   -1.3832    0.1723 C   0  0  0  0  0  0  0  0  0  9
    6.9741   -2.6527    0.0881 N   0  0  0  0  0  0  0  0  0 10
    5.9115   -3.6693    0.1143 C   0  0  0  0  0  0  0  0  0 11
    6.2342   -4.9584    0.0052 C   0  0  0  0  0  0  0  0  0 12
    5.1764   -5.9920   -0.0162 C   0  0  0  0  0  0  0  0  0 13
    3.8905   -5.6507    0.0584 C   0  0  0  0  0  0  0  0  0 14
    3.5249   -4.2526    0.1708 C   0  0  0  0  0  0  0  0  0 15
    4.4756   -3.3248    0.2003 C   0  0  0  0  0  0  0  0  0 16
    5.3154   -0.6704    0.3439 S   0  0  0  0  0  0  0  0  0 17
    7.9741    2.0202   -0.2098 O   0  0  0  0  0  0  0  0  0 18
    2.4870    0.7662   -0.4753 C   0  0  0  0  0  0  0  0  0 19
    2.9118   -0.5138   -1.1762 C   0  0  0  0  0  0  0  0  0 20
    1.1153    1.1202   -0.1880 N   0  0  0  0  0  0  0  0  0 21
   -0.0724    0.1701   -0.1408 C   0  0  0  0  0  0  0  0  0 22
    0.1398   -1.1550   -0.1094 C   0  0  0  0  0  0  0  0  0 23
   -0.9269   -2.1229   -0.0348 C   0  0  0  0  0  0  0  0  0 24
   -2.1837   -1.7218    0.0195 C   0  0  0  0  0  0  0  0  0 25
   -2.4843   -0.2795    0.0102 C   0  0  0  0  0  0  0  0  0 26
   -1.4893    0.6143   -0.0612 C   0  0  0  0  0  0  0  0  0 27
   -3.2707   -2.7572    0.0750 C   0  0  0  0  0  0  0  0  0 28
   -3.4606   -3.2328   -1.2067 F   0  0  0  0  0  0  0  0  0 29
   -2.8514   -3.8310    0.8395 F   0  0  0  0  0  0  0  0  0 30
   -4.4513   -2.2212    0.5354 F   0  0  0  0  0  0  0  0  0 31
  1  2  1  0  0  0
  2 21  1  0  0  0
  2  3  2  0  0  0
  3  4  1  0  0  0
  4  5  1  0  0  0
  4 19  2  0  0  0
  5  6  2  0  0  0
  6 17  1  0  0  0
  6  7  1  0  0  0
  7  8  2  0  0  0
  7 18  1  0  0  0
  8  9  1  0  0  0
  9 10  2  0  0  0
  9 17  1  0  0  0
 10 11  1  0  0  0
 11 16  1  0  0  0
 11 12  2  0  0  0
 12 13  1  0  0  0
 13 14  2  0  0  0
 14 15  1  0  0  0
 15 16  2  0  0  0
 19 20  1  0  0  0
 19 21  1  0  0  0
 21 22  1  0  0  0
 22 27  1  0  0  0
 22 23  2  0  0  0
 23 24  1  0  0  0
 24 25  2  0  0  0
 25 26  1  0  0  0
 25 28  1  0  0  0
 26 27  2  0  0  0
 28 29  1  0  0  0
 28 30  1  0  0  0
 28 31  1  0  0  0
M  END
> <MolfileName>
Molecule

> <COMPOUND_ID>
21

> <OSM_ID>
OSM-S-38

> <IC50_nM_Assay01>
2

$$$$
Molecule
  DSViewer          3D                             0

 35 38  0  0  0  0  0  0  0  0999 V2000
    0.1115    3.2919   -0.6447 C   0  0  0  0  0  0  0  0  0  1
    1.2847    2.4210   -0.2642 C   0  0  0  0  0  0  0  0  0  2
    2.5534    2.8428   -0.3714 C   0  0  0  0  0  0  0  0  0  3
    3.4273    1.7468    0.1001 C   0  0  0  0  0  0  0  0  0  4
    4.9788    1.9000    0.1282 C   0  0  0  0  0  0  0  0  0  5
    5.8465    0.8687   -0.0356 C   0  0  0  0  0  0  0  0  0  6
    7.3429    0.8925    0.0443 C   0  0  0  0  0  0  0  0  0  7
    7.8908   -0.3003   -0.0425 N   0  0  0  0  0  0  0  0  0  8
    6.9010   -1.3532   -0.1936 C   0  0  0  0  0  0  0  0  0  9
    7.1158   -2.6211   -0.1108 N   0  0  0  0  0  0  0  0  0 10
    6.0634   -3.6441   -0.1449 C   0  0  0  0  0  0  0  0  0 11
    6.3948   -4.9257    0.0176 C   0  0  0  0  0  0  0  0  0 12
    5.3486   -5.9692    0.0349 C   0  0  0  0  0  0  0  0  0 13
    4.0631   -5.6448   -0.0979 C   0  0  0  0  0  0  0  0  0 14
    3.6877   -4.2547   -0.2715 C   0  0  0  0  0  0  0  0  0 15
    4.6282   -3.3166   -0.2967 C   0  0  0  0  0  0  0  0  0 16
    5.4434   -0.6485   -0.3614 S   0  0  0  0  0  0  0  0  0 17
    8.0871    2.0516    0.2236 O   0  0  0  0  0  0  0  0  0 18
    2.6422    0.7479    0.5157 C   0  0  0  0  0  0  0  0  0 19
    3.0921   -0.5130    1.2596 C   0  0  0  0  0  0  0  0  0 20
    1.2666    1.0575    0.2116 N   0  0  0  0  0  0  0  0  0 21
    0.0976    0.0980    0.1714 C   0  0  0  0  0  0  0  0  0 22
    0.3303   -1.2341    0.1922 C   0  0  0  0  0  0  0  0  0 23
   -0.7316   -2.2111    0.1061 C   0  0  0  0  0  0  0  0  0 24
   -1.9882   -1.8199   -0.0054 C   0  0  0  0  0  0  0  0  0 25
   -2.2913   -0.3894   -0.0408 C   0  0  0  0  0  0  0  0  0 26
   -1.3122    0.5112    0.0388 C   0  0  0  0  0  0  0  0  0 27
   -3.7136    0.0449   -0.1598 C   0  0  0  0  0  0  0  0  0 28
   -4.2552    0.0535    1.1080 F   0  0  0  0  0  0  0  0  0 29
   -4.4263   -0.8685   -0.9093 F   0  0  0  0  0  0  0  0  0 30
   -3.7867    1.3200   -0.6783 F   0  0  0  0  0  0  0  0  0 31
   -0.3797   -3.6747    0.1372 C   0  0  0  0  0  0  0  0  0 32
    0.1923   -4.0088   -1.0743 F   0  0  0  0  0  0  0  0  0 33
    0.5825   -3.8925    1.1008 F   0  0  0  0  0  0  0  0  0 34
   -1.5019   -4.4488    0.3457 F   0  0  0  0  0  0  0  0  0 35
  1  2  1  0  0  0
  2 21  1  0  0  0
  2  3  2  0  0  0
  3  4  1  0  0  0
  4  5  1  0  0  0
  4 19  2  0  0  0
  5  6  2  0  0  0
  6 17  1  0  0  0
  6  7  1  0  0  0
  7  8  2  0  0  0
  7 18  1  0  0  0
  8  9  1  0  0  0
  9 10  2  0  0  0
  9 17  1  0  0  0
 10 11  1  0  0  0
 11 16  1  0  0  0
 11 12  2  0  0  0
 12 13  1  0  0  0
 13 14  2  0  0  0
 14 15  1  0  0  0
 15 16  2  0  0  0
 19 20  1  0  0  0
 19 21  1  0  0  0
 21 22  1  0  0  0
 22 27  1  0  0  0
 22 23  2  0  0  0
 23 24  1  0  0  0
 24 25  2  0  0  0
 24 32  1  0  0  0
 25 26  1  0  0  0
 26 27  2  0  0  0
 26 28  1  0  0  0
 28 29  1  0  0  0
 28 30  1  0  0  0
 28 31  1  0  0  0
 32 33  1  0  0  0
 32 34  1  0  0  0
 32 35  1  0  0  0
M  END
> <MolfileName>
Molecule

> <COMPOUND_ID>
22

> <OSM_ID>
OSM-S-39

> <IC50_nM_Assay01>
0.78

$$$$
Molecule
  DSViewer          3D                             0

 34 37  0  0  0  0  0  0  0  0999 V2000
    0.4705   -3.5767   -0.0012 C   0  0  0  0  0  0  0  0  0  1
   -0.7697   -2.7183   -0.0005 C   0  0  0  0  0  0  0  0  0  2
   -2.0339   -3.2177    0.0005 C   0  0  0  0  0  0  0  0  0  3
   -2.9899   -2.0442   -0.0002 C   0  0  0  0  0  0  0  0  0  4
   -4.6505   -2.1587    0.0004 C   0  0  0  0  0  0  0  0  0  5
   -5.5753   -1.1271    0.0006 C   0  0  0  0  0  0  0  0  0  6
   -7.0738   -1.1105    0.0006 C   0  0  0  0  0  0  0  0  0  7
   -7.7920   -2.1203    0.0005 O   0  0  0  0  0  0  0  0  0  8
   -7.6270    0.3503    0.0004 N   0  0  0  0  0  0  0  0  0  9
   -6.6801    1.2450    0.0005 C   0  0  0  0  0  0  0  0  0 10
   -6.7113    2.7791    0.0001 N   0  0  0  0  0  0  0  0  0 11
   -5.3267    3.4883    0.0000 C   0  0  0  0  0  0  0  0  0 12
   -5.2551    5.0075   -0.0002 C   0  0  0  0  0  0  0  0  0 13
   -5.2000    6.1619   -0.0005 N   0  0  0  0  0  0  0  0  0 14
   -7.9874    3.5374   -0.0002 C   0  0  0  0  0  0  0  0  0 15
   -9.1488    2.8933    0.0007 C   0  0  0  0  0  0  0  0  0 16
  -10.4176    3.6530    0.0008 C   0  0  0  0  0  0  0  0  0 17
  -10.4245    4.9863    0.0001 C   0  0  0  0  0  0  0  0  0 18
   -9.1778    5.7062   -0.0009 C   0  0  0  0  0  0  0  0  0 19
   -8.0400    5.0274   -0.0011 C   0  0  0  0  0  0  0  0  0 20
   -5.2754    0.4698    0.0009 S   0  0  0  0  0  0  0  0  0 21
   -2.1889   -0.9429   -0.0016 C   0  0  0  0  0  0  0  0  0 22
   -2.5987    0.4146   -0.0013 C   0  0  0  0  0  0  0  0  0 23
   -0.7947   -1.2753   -0.0038 N   0  0  0  0  0  0  0  0  0 24
    0.4393   -0.2081   -0.0189 C   0  0  0  0  0  0  0  0  0 25
    0.2393    1.1288   -0.0409 C   0  0  0  0  0  0  0  0  0 26
    1.2973    2.1648   -0.0515 C   0  0  0  0  0  0  0  0  0 27
    2.5788    1.8270   -0.0645 C   0  0  0  0  0  0  0  0  0 28
    2.8786    0.3433   -0.0435 C   0  0  0  0  0  0  0  0  0 29
    1.8901   -0.5926   -0.0203 C   0  0  0  0  0  0  0  0  0 30
    3.7043    2.9861    0.0442 C   0  0  0  0  0  0  0  0  0 31
    4.1712    3.4659   -1.1828 F   0  0  0  0  0  0  0  0  0 32
    3.1462    4.0913    0.6722 F   0  0  0  0  0  0  0  0  0 33
    4.8206    2.5263    0.7132 F   0  0  0  0  0  0  0  0  0 34
  1  2  1  0  0  0
  2 24  1  0  0  0
  2  3  2  0  0  0
  3  4  1  0  0  0
  4  5  1  0  0  0
  4 22  2  0  0  0
  5  6  2  0  0  0
  6 21  1  0  0  0
  6  7  1  0  0  0
  7  8  2  0  0  0
  7  9  1  0  0  0
  9 10  2  0  0  0
 10 11  1  0  0  0
 10 21  1  0  0  0
 11 12  1  0  0  0
 11 15  1  0  0  0
 12 13  1  0  0  0
 13 14  3  0  0  0
 15 20  1  0  0  0
 15 16  2  0  0  0
 16 17  1  0  0  0
 17 18  2  0  0  0
 18 19  1  0  0  0
 19 20  2  0  0  0
 22 23  1  0  0  0
 22 24  1  0  0  0
 24 25  1  0  0  0
 25 30  1  0  0  0
 25 26  2  0  0  0
 26 27  1  0  0  0
 27 28  2  0  0  0
 28 29  1  0  0  0
 28 31  1  0  0  0
 29 30  2  0  0  0
 31 32  1  0  0  0
 31 33  1  0  0  0
 31 34  1  0  0  0
M  END
> <MolfileName>
Molecule

> <COMPOUND_ID>
23

> <OSM_ID>
OSM-S-43

> <IC50_nM_Assay01>
3120

$$$$
Molecule
  DSViewer          3D                             0

 34 37  0  0  0  0  0  0  0  0999 V2000
   -0.2522    3.4907   -0.0009 C   0  0  0  0  0  0  0  0  0  1
    0.9837    2.6417    0.0003 C   0  0  0  0  0  0  0  0  0  2
    2.2522    3.1451   -0.0023 C   0  0  0  0  0  0  0  0  0  3
    3.2031    1.9845   -0.0022 C   0  0  0  0  0  0  0  0  0  4
    4.8984    2.0722   -0.0022 C   0  0  0  0  0  0  0  0  0  5
    5.8104    1.0237   -0.0005 C   0  0  0  0  0  0  0  0  0  6
    7.3439    0.9679    0.0004 C   0  0  0  0  0  0  0  0  0  7
    8.0889    1.9601    0.0007 O   0  0  0  0  0  0  0  0  0  8
    7.8506   -0.5078    0.0004 N   0  0  0  0  0  0  0  0  0  9
    9.2983   -0.8651    0.0005 C   0  0  0  0  0  0  0  0  0 10
    9.6413   -2.3247    0.0006 C   0  0  0  0  0  0  0  0  0 11
    9.9089   -3.4473    0.0005 N   0  0  0  0  0  0  0  0  0 12
    6.7158   -1.4521    0.0001 C   0  0  0  0  0  0  0  0  0 13
    6.6673   -2.7578   -0.0002 N   0  0  0  0  0  0  0  0  0 14
    5.3689   -3.6144   -0.0004 C   0  0  0  0  0  0  0  0  0 15
    5.4169   -4.9485    0.0005 C   0  0  0  0  0  0  0  0  0 16
    4.1492   -5.7639    0.0008 C   0  0  0  0  0  0  0  0  0 17
    2.9531   -5.1793    0.0002 C   0  0  0  0  0  0  0  0  0 18
    2.8993   -3.7535   -0.0009 C   0  0  0  0  0  0  0  0  0 19
    4.0327   -3.0448   -0.0011 C   0  0  0  0  0  0  0  0  0 20
    5.4144   -0.5468    0.0006 S   0  0  0  0  0  0  0  0  0 21
    2.3792    0.9096   -0.0021 C   0  0  0  0  0  0  0  0  0 22
    2.7441   -0.3234   -0.0059 C   0  0  0  0  0  0  0  0  0 23
    1.0029    1.2134    0.0050 N   0  0  0  0  0  0  0  0  0 24
   -0.2386    0.1204    0.0262 C   0  0  0  0  0  0  0  0  0 25
   -0.0391   -1.2215    0.0279 C   0  0  0  0  0  0  0  0  0 26
   -1.0974   -2.2491    0.0345 C   0  0  0  0  0  0  0  0  0 27
   -2.3757   -1.9087    0.0516 C   0  0  0  0  0  0  0  0  0 28
   -2.6839   -0.4319    0.0635 C   0  0  0  0  0  0  0  0  0 29
   -1.6951    0.5033    0.0497 C   0  0  0  0  0  0  0  0  0 30
   -3.4720   -3.0694   -0.0071 C   0  0  0  0  0  0  0  0  0 31
   -3.5643   -3.4819   -1.3153 F   0  0  0  0  0  0  0  0  0 32
   -3.0365   -4.1984    0.6797 F   0  0  0  0  0  0  0  0  0 33
   -4.7523   -2.6949    0.3991 F   0  0  0  0  0  0  0  0  0 34
  1  2  1  0  0  0
  2 24  1  0  0  0
  2  3  2  0  0  0
  3  4  1  0  0  0
  4  5  1  0  0  0
  4 22  2  0  0  0
  5  6  2  0  0  0
  6 21  1  0  0  0
  6  7  1  0  0  0
  7  8  2  0  0  0
  7  9  1  0  0  0
  9 10  1  0  0  0
  9 13  1  0  0  0
 10 11  1  0  0  0
 11 12  3  0  0  0
 13 14  2  0  0  0
 13 21  1  0  0  0
 14 15  1  0  0  0
 15 20  1  0  0  0
 15 16  2  0  0  0
 16 17  1  0  0  0
 17 18  2  0  0  0
 18 19  1  0  0  0
 19 20  2  0  0  0
 22 23  1  0  0  0
 22 24  1  0  0  0
 24 25  1  0  0  0
 25 30  1  0  0  0
 25 26  2  0  0  0
 26 27  1  0  0  0
 27 28  2  0  0  0
 28 29  1  0  0  0
 28 31  1  0  0  0
 29 30  2  0  0  0
 31 32  1  0  0  0
 31 33  1  0  0  0
 31 34  1  0  0  0
M  END
> <MolfileName>
Molecule

> <COMPOUND_ID>
24

> <OSM_ID>
OSM-S-42

> <IC50_nM_Assay01>
could not dertermine

$$$$
Molecule
  DSViewer          3D                             0

 34 37  0  0  0  0  0  0  0  0999 V2000
    7.5037    1.9038    0.1298 O   0  0  0  0  0  0  0  0  0  1
    6.8394    0.8614    0.0117 C   0  0  0  0  0  0  0  0  0  2
    7.4390   -0.5140   -0.0075 N   0  0  0  0  0  0  0  0  0  3
    6.5434   -1.4523   -0.1367 C   0  0  0  0  0  0  0  0  0  4
    6.7716   -2.9363   -0.1136 N   0  0  0  0  0  0  0  0  0  5
    5.6148   -3.9128   -0.1310 C   0  0  0  0  0  0  0  0  0  6
    4.1765   -3.5125   -0.1981 C   0  0  0  0  0  0  0  0  0  7
    5.8034   -5.1309   -0.0894 O   0  0  0  0  0  0  0  0  0  8
    8.1331   -3.4736   -0.0455 C   0  0  0  0  0  0  0  0  0  9
    9.1943   -2.6643   -0.0286 C   0  0  0  0  0  0  0  0  0 10
   10.5534   -3.2172    0.0287 C   0  0  0  0  0  0  0  0  0 11
   10.7473   -4.5338    0.0620 C   0  0  0  0  0  0  0  0  0 12
    9.6068   -5.4310    0.0447 C   0  0  0  0  0  0  0  0  0 13
    8.3782   -4.9313   -0.0051 C   0  0  0  0  0  0  0  0  0 14
    5.0507   -0.7378   -0.2810 S   0  0  0  0  0  0  0  0  0 15
    5.3727    0.8295   -0.0511 C   0  0  0  0  0  0  0  0  0 16
    4.4878    1.8458    0.0615 C   0  0  0  0  0  0  0  0  0 17
    2.9161    1.7660    0.0518 C   0  0  0  0  0  0  0  0  0 18
    2.0877    0.7356    0.3728 C   0  0  0  0  0  0  0  0  0 19
    2.5008   -0.5872    0.9357 C   0  0  0  0  0  0  0  0  0 20
    0.7173    1.1492    0.1540 N   0  0  0  0  0  0  0  0  0 21
    0.7791    2.5450   -0.1642 C   0  0  0  0  0  0  0  0  0 22
   -0.3756    3.4904   -0.3964 C   0  0  0  0  0  0  0  0  0 23
    2.0589    2.9281   -0.2638 C   0  0  0  0  0  0  0  0  0 24
   -0.4972    0.2181    0.1124 C   0  0  0  0  0  0  0  0  0 25
   -0.3226   -1.1014    0.0301 C   0  0  0  0  0  0  0  0  0 26
   -1.4006   -2.0474   -0.0204 C   0  0  0  0  0  0  0  0  0 27
   -2.6492   -1.6222    0.0012 C   0  0  0  0  0  0  0  0  0 28
   -3.7470   -2.6416   -0.0194 C   0  0  0  0  0  0  0  0  0 29
   -4.0426   -2.9322   -1.3342 F   0  0  0  0  0  0  0  0  0 30
   -3.3005   -3.8098    0.5739 F   0  0  0  0  0  0  0  0  0 31
   -4.8789   -2.1509    0.5885 F   0  0  0  0  0  0  0  0  0 32
   -2.9220   -0.1753    0.0625 C   0  0  0  0  0  0  0  0  0 33
   -1.9070    0.7010    0.1102 C   0  0  0  0  0  0  0  0  0 34
  1  2  2  0  0  0
  2 16  1  0  0  0
  2  3  1  0  0  0
  3  4  2  0  0  0
  4  5  1  0  0  0
  4 15  1  0  0  0
  5  6  1  0  0  0
  5  9  1  0  0  0
  6  7  1  0  0  0
  6  8  2  0  0  0
  9 14  1  0  0  0
  9 10  2  0  0  0
 10 11  1  0  0  0
 11 12  2  0  0  0
 12 13  1  0  0  0
 13 14  2  0  0  0
 15 16  1  0  0  0
 16 17  2  0  0  0
 17 18  1  0  0  0
 18 24  1  0  0  0
 18 19  2  0  0  0
 19 20  1  0  0  0
 19 21  1  0  0  0
 21 22  1  0  0  0
 21 25  1  0  0  0
 22 23  1  0  0  0
 22 24  2  0  0  0
 25 34  1  0  0  0
 25 26  2  0  0  0
 26 27  1  0  0  0
 27 28  2  0  0  0
 28 29  1  0  0  0
 28 33  1  0  0  0
 29 30  1  0  0  0
 29 31  1  0  0  0
 29 32  1  0  0  0
 33 34  2  0  0  0
M  END
> <MolfileName>
Molecule

> <COMPOUND_ID>
25

> <OSM_ID>
OSM-S-45

> <IC50_nM_Assay01>
12

$$$$
Molecule
  DSViewer          3D                             0

 32 35  0  0  0  0  0  0  0  0999 V2000
    9.8647    1.0958    0.0005 C   0  0  0  0  0  0  0  0  0  1
    8.3314    1.1029    0.0010 C   0  0  0  0  0  0  0  0  0  2
    7.8581    2.4563   -0.0023 O   0  0  0  0  0  0  0  0  0  3
    6.4284    2.7290   -0.0033 C   0  0  0  0  0  0  0  0  0  4
    6.1097    3.9228   -0.0064 O   0  0  0  0  0  0  0  0  0  5
    5.2648    1.7413   -0.0005 C   0  0  0  0  0  0  0  0  0  6
    5.3464    0.4056    0.0051 C   0  0  0  0  0  0  0  0  0  7
    4.1413   -0.4456    0.0091 C   0  0  0  0  0  0  0  0  0  8
    2.9219    0.0966    0.0085 C   0  0  0  0  0  0  0  0  0  9
    2.8806    1.5774   -0.0004 C   0  0  0  0  0  0  0  0  0 10
    3.9623    2.3346   -0.0040 C   0  0  0  0  0  0  0  0  0 11
    1.6485   -0.7565    0.0119 N   0  0  0  0  0  0  0  0  0 12
    1.5364   -2.1971   -0.0119 C   0  0  0  0  0  0  0  0  0 13
    2.6460   -3.2284   -0.0292 C   0  0  0  0  0  0  0  0  0 14
    0.2495   -2.5491   -0.0189 C   0  0  0  0  0  0  0  0  0 15
   -0.5676   -1.3281    0.0061 C   0  0  0  0  0  0  0  0  0 16
   -2.1407   -1.4248    0.0105 C   0  0  0  0  0  0  0  0  0 17
   -3.0788   -0.4532   -0.0116 C   0  0  0  0  0  0  0  0  0 18
   -4.5745   -0.6162    0.0052 C   0  0  0  0  0  0  0  0  0 19
   -5.2322    0.5151   -0.0057 N   0  0  0  0  0  0  0  0  0 20
   -4.3352    1.6541   -0.0348 C   0  0  0  0  0  0  0  0  0 21
   -4.5555    2.9064   -0.0370 N   0  0  0  0  0  0  0  0  0 22
   -5.7631    3.5566   -0.0153 C   0  0  0  0  0  0  0  0  0 23
   -6.9219    2.9071   -0.0027 C   0  0  0  0  0  0  0  0  0 24
   -8.1700    3.6676    0.0170 C   0  0  0  0  0  0  0  0  0 25
   -8.1435    5.0006    0.0222 C   0  0  0  0  0  0  0  0  0 26
   -6.8677    5.7100    0.0091 C   0  0  0  0  0  0  0  0  0 27
   -5.7346    5.0191   -0.0088 C   0  0  0  0  0  0  0  0  0 28
   -2.8406    1.1298   -0.0597 S   0  0  0  0  0  0  0  0  0 29
   -5.2015   -1.8591    0.0332 O   0  0  0  0  0  0  0  0  0 30
    0.2862   -0.2669    0.0317 C   0  0  0  0  0  0  0  0  0 31
   -0.0732    1.1706    0.0831 C   0  0  0  0  0  0  0  0  0 32
  1  2  1  0  0  0
  2  3  1  0  0  0
  3  4  1  0  0  0
  4  5  2  0  0  0
  4  6  1  0  0  0
  6 11  1  0  0  0
  6  7  2  0  0  0
  7  8  1  0  0  0
  8  9  2  0  0  0
  9 10  1  0  0  0
  9 12  1  0  0  0
 10 11  2  0  0  0
 12 31  1  0  0  0
 12 13  1  0  0  0
 13 14  1  0  0  0
 13 15  2  0  0  0
 15 16  1  0  0  0
 16 17  1  0  0  0
 16 31  2  0  0  0
 17 18  2  0  0  0
 18 29  1  0  0  0
 18 19  1  0  0  0
 19 20  2  0  0  0
 19 30  1  0  0  0
 20 21  1  0  0  0
 21 22  2  0  0  0
 21 29  1  0  0  0
 22 23  1  0  0  0
 23 28  1  0  0  0
 23 24  2  0  0  0
 24 25  1  0  0  0
 25 26  2  0  0  0
 26 27  1  0  0  0
 27 28  2  0  0  0
 31 32  1  0  0  0
M  END
> <MolfileName>
Molecule

> <COMPOUND_ID>
26

> <OSM_ID>
OSM-S-48

> <IC50_nM_Assay01>
169

$$$$
Molecule
  SciTegic10291209353D

 30 33  0  0  0  0            999 V2000
    7.2492    1.7861   -0.0450 O   0  0  0  0  0  0  0  0  0  1  0  0
    6.5843    0.7450   -0.0136 C   0  0  0  0  0  0  0  0  0  2  0  0
    7.1817   -0.6426   -0.0124 N   0  0  0  0  0  0  0  0  0  3  0  0
    6.2806   -1.5767    0.0242 C   0  0  0  0  0  0  0  0  0  4  0  0
    6.4728   -3.0670    0.0188 N   0  0  0  0  0  0  0  0  0  5  0  0
    5.2978   -4.0307    0.0184 C   0  0  0  0  0  0  0  0  0  6  0  0
    3.8694   -3.6209    0.0229 C   0  0  0  0  0  0  0  0  0  7  0  0
    5.4651   -5.2518    0.0106 O   0  0  0  0  0  0  0  0  0  8  0  0
    7.8169   -3.6222    0.0097 C   0  0  0  0  0  0  0  0  0  9  0  0
    8.8878   -2.8335    0.0109 C   0  0  0  0  0  0  0  0  0 10  0  0
   10.2352   -3.4098    0.0066 C   0  0  0  0  0  0  0  0  0 11  0  0
   10.4046   -4.7304    0.0028 C   0  0  0  0  0  0  0  0  0 12  0  0
    9.2496   -5.6064    0.0016 C   0  0  0  0  0  0  0  0  0 13  0  0
    8.0309   -5.0833    0.0045 C   0  0  0  0  0  0  0  0  0 14  0  0
    4.8071   -0.8658    0.0715 S   0  0  0  0  0  0  0  0  0 15  0  0
    5.1121    0.6992    0.0090 C   0  0  0  0  0  0  0  0  0 16  0  0
    4.2191    1.7266   -0.0164 C   0  0  0  0  0  0  0  0  0 17  0  0
    2.6215    1.6921   -0.0088 C   0  0  0  0  0  0  0  0  0 18  0  0
    1.7369    0.6694   -0.0810 C   0  0  0  0  0  0  0  0  0 19  0  0
    2.0511   -0.7440   -0.2171 C   0  0  0  0  0  0  0  0  0 20  0  0
    0.3865    1.1719   -0.0259 N   0  0  0  0  0  0  0  0  0 21  0  0
    0.5299    2.6066    0.0445 C   0  0  0  0  0  0  0  0  0 22  0  0
   -0.5634    3.6474    0.0957 C   0  0  0  0  0  0  0  0  0 23  0  0
    1.8289    2.9365    0.0645 C   0  0  0  0  0  0  0  0  0 24  0  0
   -0.9178    0.3330   -0.0154 C   0  0  0  0  0  0  0  0  0 25  0  0
   -0.9011   -1.0124   -0.0029 C   0  0  0  0  0  0  0  0  0 26  0  0
   -2.0966   -1.8319    0.0101 C   0  0  0  0  0  0  0  0  0 27  0  0
   -3.2843   -1.2496    0.0132 C   0  0  0  0  0  0  0  0  0 28  0  0
   -3.3620    0.2082    0.0053 C   0  0  0  0  0  0  0  0  0 29  0  0
   -2.2537    0.9531   -0.0073 C   0  0  0  0  0  0  0  0  0 30  0  0
  1  2  2  0
  2 16  1  0
  2  3  1  0
  3  4  2  0
  4  5  1  0
  4 15  1  0
  5  6  1  0
  5  9  1  0
  6  7  1  0
  6  8  2  0
  9 14  1  0
  9 10  2  0
 10 11  1  0
 11 12  2  0
 12 13  1  0
 13 14  2  0
 15 16  1  0
 16 17  2  0
 17 18  1  0
 18 24  1  0
 18 19  2  0
 19 20  1  0
 19 21  1  0
 21 22  1  0
 21 25  1  0
 22 23  1  0
 22 24  2  0
 25 30  1  0
 25 26  2  0
 26 27  1  0
 27 28  2  0
 28 29  1  0
 29 30  2  0
M  END
> <Name>
Molecule

> <MolfileName>
Molecule

> <COMPOUND_ID>
27

> <OSM_ID>
OSM-S-49

> <IC50_nM_Assay01>
63

$$$$
Molecule
  SciTegic10291209353D

 31 34  0  0  0  0            999 V2000
    7.3380    1.8243   -0.0436 O   0  0  0  0  0  0  0  0  0  1  0  0
    6.6772    0.7812   -0.0128 C   0  0  0  0  0  0  0  0  0  2  0  0
    7.2809   -0.6075   -0.0130 N   0  0  0  0  0  0  0  0  0  3  0  0
    6.3836   -1.5450    0.0235 C   0  0  0  0  0  0  0  0  0  4  0  0
    6.5772   -3.0373    0.0173 N   0  0  0  0  0  0  0  0  0  5  0  0
    5.4031   -4.0040    0.0159 C   0  0  0  0  0  0  0  0  0  6  0  0
    3.9743   -3.5976    0.0183 C   0  0  0  0  0  0  0  0  0  7  0  0
    5.5722   -5.2250    0.0081 O   0  0  0  0  0  0  0  0  0  8  0  0
    7.9209   -3.5905    0.0090 C   0  0  0  0  0  0  0  0  0  9  0  0
    8.9901   -2.8002    0.0106 C   0  0  0  0  0  0  0  0  0 10  0  0
   10.3382   -3.3746    0.0072 C   0  0  0  0  0  0  0  0  0 11  0  0
   10.5095   -4.6950    0.0039 C   0  0  0  0  0  0  0  0  0 12  0  0
    9.3561   -5.5730    0.0022 C   0  0  0  0  0  0  0  0  0 13  0  0
    8.1367   -5.0516    0.0042 C   0  0  0  0  0  0  0  0  0 14  0  0
    4.9117   -0.8393    0.0729 S   0  0  0  0  0  0  0  0  0 15  0  0
    5.2044    0.7301    0.0104 C   0  0  0  0  0  0  0  0  0 16  0  0
    4.3030    1.7545   -0.0147 C   0  0  0  0  0  0  0  0  0 17  0  0
    2.6997    1.7093   -0.0068 C   0  0  0  0  0  0  0  0  0 18  0  0
    1.8296    0.6779   -0.0786 C   0  0  0  0  0  0  0  0  0 19  0  0
    2.1682   -0.7248   -0.2149 C   0  0  0  0  0  0  0  0  0 20  0  0
    0.4697    1.1575   -0.0242 N   0  0  0  0  0  0  0  0  0 21  0  0
    0.5894    2.5927    0.0434 C   0  0  0  0  0  0  0  0  0 22  0  0
   -0.5248    3.6099    0.0906 C   0  0  0  0  0  0  0  0  0 23  0  0
    1.8852    2.9449    0.0641 C   0  0  0  0  0  0  0  0  0 24  0  0
   -0.8184    0.2888   -0.0136 C   0  0  0  0  0  0  0  0  0 25  0  0
   -0.7563   -1.0541    0.0011 C   0  0  0  0  0  0  0  0  0 26  0  0
   -1.9031   -1.9189    0.0101 C   0  0  0  0  0  0  0  0  0 27  0  0
   -3.1112   -1.3918    0.0075 C   0  0  0  0  0  0  0  0  0 28  0  0
   -4.3092   -2.2935    0.0128 C   0  0  0  0  0  0  0  0  0 29  0  0
   -3.2580    0.0697   -0.0007 C   0  0  0  0  0  0  0  0  0 30  0  0
   -2.1797    0.8633   -0.0097 C   0  0  0  0  0  0  0  0  0 31  0  0
  1  2  2  0
  2 16  1  0
  2  3  1  0
  3  4  2  0
  4  5  1  0
  4 15  1  0
  5  6  1  0
  5  9  1  0
  6  7  1  0
  6  8  2  0
  9 14  1  0
  9 10  2  0
 10 11  1  0
 11 12  2  0
 12 13  1  0
 13 14  2  0
 15 16  1  0
 16 17  2  0
 17 18  1  0
 18 24  1  0
 18 19  2  0
 19 20  1  0
 19 21  1  0
 21 22  1  0
 21 25  1  0
 22 23  1  0
 22 24  2  0
 25 31  1  0
 25 26  2  0
 26 27  1  0
 27 28  2  0
 28 29  1  0
 28 30  1  0
 30 31  2  0
M  END
> <Name>
Molecule

> <MolfileName>
Molecule

> <COMPOUND_ID>
28

> <OSM_ID>
OSM-S-50

> <IC50_nM_Assay01>
326

$$$$
Molecule
  SciTegic10291209353D

 27 30  0  0  0  0            999 V2000
   -0.2484    3.4588   -0.0940 C   0  0  0  0  0  0  0  0  0  1  0  0
    0.8960    2.4845   -0.0431 C   0  0  0  0  0  0  0  0  0  2  0  0
    2.1875    2.8538   -0.0696 C   0  0  0  0  0  0  0  0  0  3  0  0
    3.0075    1.6164    0.0115 C   0  0  0  0  0  0  0  0  0  4  0  0
    4.6192    1.6776    0.0185 C   0  0  0  0  0  0  0  0  0  5  0  0
    5.5164    0.6488   -0.0185 C   0  0  0  0  0  0  0  0  0  6  0  0
    7.0294    0.6929    0.0084 C   0  0  0  0  0  0  0  0  0  7  0  0
    7.5931   -0.5004   -0.0015 N   0  0  0  0  0  0  0  0  0  8  0  0
    6.6083   -1.5752   -0.0382 C   0  0  0  0  0  0  0  0  0  9  0  0
    6.8038   -2.8531   -0.0083 N   0  0  0  0  0  0  0  0  0 10  0  0
    5.7039   -3.8677   -0.0186 C   0  0  0  0  0  0  0  0  0 11  0  0
    5.9930   -5.1688    0.0022 C   0  0  0  0  0  0  0  0  0 12  0  0
    4.9007   -6.1782    0.0042 C   0  0  0  0  0  0  0  0  0 13  0  0
    3.6216   -5.8047   -0.0100 C   0  0  0  0  0  0  0  0  0 14  0  0
    3.2967   -4.4016   -0.0305 C   0  0  0  0  0  0  0  0  0 15  0  0
    4.2751   -3.5024   -0.0358 C   0  0  0  0  0  0  0  0  0 16  0  0
    5.1738   -0.8877   -0.1018 S   0  0  0  0  0  0  0  0  0 17  0  0
    7.7656    1.8730    0.0461 O   0  0  0  0  0  0  0  0  0 18  0  0
    2.1336    0.5925    0.0953 C   0  0  0  0  0  0  0  0  0 19  0  0
    2.4378   -0.8180    0.2528 C   0  0  0  0  0  0  0  0  0 20  0  0
    0.7883    1.0725    0.0341 N   0  0  0  0  0  0  0  0  0 21  0  0
   -0.5054    0.2629    0.0197 C   0  0  0  0  0  0  0  0  0 22  0  0
   -0.5137   -1.0886    0.0044 C   0  0  0  0  0  0  0  0  0 23  0  0
   -1.7288   -1.8583   -0.0128 C   0  0  0  0  0  0  0  0  0 24  0  0
   -2.8790   -1.2116   -0.0169 C   0  0  0  0  0  0  0  0  0 25  0  0
   -2.8579    0.2520   -0.0068 C   0  0  0  0  0  0  0  0  0 26  0  0
   -1.7581    0.9026    0.0086 N   0  0  0  0  0  0  0  0  0 27  0  0
  1  2  1  0
  2 21  1  0
  2  3  2  0
  3  4  1  0
  4  5  1  0
  4 19  2  0
  5  6  2  0
  6 17  1  0
  6  7  1  0
  7  8  2  0
  7 18  1  0
  8  9  1  0
  9 10  2  0
  9 17  1  0
 10 11  1  0
 11 16  1  0
 11 12  2  0
 12 13  1  0
 13 14  2  0
 14 15  1  0
 15 16  2  0
 19 20  1  0
 19 21  1  0
 21 22  1  0
 22 27  1  0
 22 23  2  0
 23 24  1  0
 24 25  2  0
 25 26  1  0
 26 27  2  0
M  END
> <Name>
Molecule

> <MolfileName>
Molecule

> <COMPOUND_ID>
29

> <OSM_ID>
OSM-S-51

> <IC50_nM_Assay01>
307

$$$$
Molecule
  SciTegic10291209353D

 37 41  0  0  0  0            999 V2000
   -0.3272   -3.4468    0.4952 C   0  0  0  0  0  0  0  0  0  1  0  0
   -1.2641   -2.2984    0.2042 C   0  0  0  0  0  0  0  0  0  2  0  0
   -2.5957   -2.4092    0.3057 C   0  0  0  0  0  0  0  0  0  3  0  0
   -3.1981   -1.1127   -0.0748 C   0  0  0  0  0  0  0  0  0  4  0  0
   -4.7598   -0.8774   -0.0866 C   0  0  0  0  0  0  0  0  0  5  0  0
   -5.4063    0.3067    0.0305 C   0  0  0  0  0  0  0  0  0  6  0  0
   -6.8800    0.5832   -0.0133 C   0  0  0  0  0  0  0  0  0  7  0  0
   -7.7392   -0.3053   -0.1155 O   0  0  0  0  0  0  0  0  0  8  0  0
   -7.1740    2.0554    0.0584 N   0  0  0  0  0  0  0  0  0  9  0  0
   -8.4854    2.6427    0.0181 C   0  0  0  0  0  0  0  0  0 10  0  0
   -9.5759    1.8721   -0.0315 C   0  0  0  0  0  0  0  0  0 11  0  0
  -10.9132    2.4809   -0.0609 C   0  0  0  0  0  0  0  0  0 12  0  0
  -11.0489    3.8054   -0.0390 C   0  0  0  0  0  0  0  0  0 13  0  0
   -9.8631    4.6564    0.0136 C   0  0  0  0  0  0  0  0  0 14  0  0
   -8.6514    4.1063    0.0418 C   0  0  0  0  0  0  0  0  0 15  0  0
   -5.9478    2.8270    0.1480 C   0  0  0  0  0  0  0  0  0 16  0  0
   -5.8205    4.1064    0.0935 N   0  0  0  0  0  0  0  0  0 17  0  0
   -4.5442    4.8257    0.1048 C   0  0  0  0  0  0  0  0  0 18  0  0
   -4.5438    6.1546    0.0136 C   0  0  0  0  0  0  0  0  0 19  0  0
   -3.2678    6.8993   -0.0134 C   0  0  0  0  0  0  0  0  0 20  0  0
   -2.1039    6.2534    0.0413 C   0  0  0  0  0  0  0  0  0 21  0  0
   -2.0903    4.8070    0.1365 C   0  0  0  0  0  0  0  0  0 22  0  0
   -3.2389    4.1389    0.1695 C   0  0  0  0  0  0  0  0  0 23  0  0
   -4.7006    1.7588    0.2668 S   0  0  0  0  0  0  0  0  0 24  0  0
   -2.1782   -0.2926   -0.4383 C   0  0  0  0  0  0  0  0  0 25  0  0
   -2.3077    1.0608   -1.0786 C   0  0  0  0  0  0  0  0  0 26  0  0
   -0.9186   -0.9597   -0.1762 N   0  0  0  0  0  0  0  0  0 27  0  0
    0.4584   -0.2904   -0.1251 C   0  0  0  0  0  0  0  0  0 28  0  0
    0.5517    1.0427   -0.0864 C   0  0  0  0  0  0  0  0  0 29  0  0
    1.8055    1.7508   -0.0164 C   0  0  0  0  0  0  0  0  0 30  0  0
    2.9416    1.0792    0.0274 C   0  0  0  0  0  0  0  0  0 31  0  0
    2.9125   -0.3936    0.0133 C   0  0  0  0  0  0  0  0  0 32  0  0
    1.7419   -1.0449   -0.0544 C   0  0  0  0  0  0  0  0  0 33  0  0
    4.2304    1.8496    0.0731 C   0  0  0  0  0  0  0  0  0 34  0  0
    4.4879    2.3096   -1.2029 F   0  0  0  0  0  0  0  0  0 35  0  0
    4.0739    2.9683    0.8712 F   0  0  0  0  0  0  0  0  0 36  0  0
    5.2753    1.0573    0.4890 F   0  0  0  0  0  0  0  0  0 37  0  0
  1  2  1  0
  2 27  1  0
  2  3  2  0
  3  4  1  0
  4  5  1  0
  4 25  2  0
  5  6  2  0
  6 24  1  0
  6  7  1  0
  7  8  2  0
  7  9  1  0
  9 10  1  0
  9 16  1  0
 10 15  1  0
 10 11  2  0
 11 12  1  0
 12 13  2  0
 13 14  1  0
 14 15  2  0
 16 17  2  0
 16 24  1  0
 17 18  1  0
 18 23  1  0
 18 19  2  0
 19 20  1  0
 20 21  2  0
 21 22  1  0
 22 23  2  0
 25 26  1  0
 25 27  1  0
 27 28  1  0
 28 33  1  0
 28 29  2  0
 29 30  1  0
 30 31  2  0
 31 32  1  0
 31 34  1  0
 32 33  2  0
 34 35  1  0
 34 36  1  0
 34 37  1  0
M  END
> <Name>
Molecule

> <MolfileName>
Molecule

> <COMPOUND_ID>
30

> <OSM_ID>
OSM-S-52

> <IC50_nM_Assay01>
54

$$$$
Molecule
  SciTegic10291209353D

 36 40  0  0  0  0            999 V2000
   -0.3604    3.5055    0.1854 C   0  0  0  0  0  0  0  0  0  1  0  0
    0.7957    2.5434    0.0638 C   0  0  0  0  0  0  0  0  0  2  0  0
    2.0793    2.9305    0.1598 C   0  0  0  0  0  0  0  0  0  3  0  0
    2.9452    1.7413   -0.0421 C   0  0  0  0  0  0  0  0  0  4  0  0
    4.5533    1.8142    0.0008 C   0  0  0  0  0  0  0  0  0  5  0  0
    5.4592    0.8006    0.0846 C   0  0  0  0  0  0  0  0  0  6  0  0
    6.9620    0.8626    0.1370 C   0  0  0  0  0  0  0  0  0  7  0  0
    7.6018    1.9252    0.1450 O   0  0  0  0  0  0  0  0  0  8  0  0
    7.5788   -0.5214    0.2082 N   0  0  0  0  0  0  0  0  0  9  0  0
    9.0218   -0.8062    0.3131 C   0  0  0  0  0  0  0  0  0 10  0  0
    9.9379    0.1776   -0.3889 C   0  0  0  0  0  0  0  0  0 11  0  0
   11.3154   -0.4949   -0.1499 C   0  0  0  0  0  0  0  0  0 12  0  0
   10.9996   -2.0312   -0.1024 C   0  0  0  0  0  0  0  0  0 13  0  0
    9.4766   -2.1092   -0.3310 C   0  0  0  0  0  0  0  0  0 14  0  0
    6.5509   -1.5481    0.1962 C   0  0  0  0  0  0  0  0  0 15  0  0
    6.6908   -2.8323    0.1794 N   0  0  0  0  0  0  0  0  0 16  0  0
    5.5776   -3.8044    0.1289 C   0  0  0  0  0  0  0  0  0 17  0  0
    5.8443   -5.1089    0.0662 C   0  0  0  0  0  0  0  0  0 18  0  0
    4.7400   -6.0945   -0.0079 C   0  0  0  0  0  0  0  0  0 19  0  0
    3.4693   -5.6944   -0.0202 C   0  0  0  0  0  0  0  0  0 20  0  0
    3.1681   -4.2823    0.0467 C   0  0  0  0  0  0  0  0  0 21  0  0
    4.1606   -3.4010    0.1198 C   0  0  0  0  0  0  0  0  0 22  0  0
    5.1189   -0.7836    0.1893 S   0  0  0  0  0  0  0  0  0 23  0  0
    2.1051    0.6993   -0.2934 C   0  0  0  0  0  0  0  0  0 24  0  0
    2.4991   -0.6464   -0.6989 C   0  0  0  0  0  0  0  0  0 25  0  0
    0.7286    1.1288   -0.1494 N   0  0  0  0  0  0  0  0  0 26  0  0
   -0.5112    0.1896   -0.1002 C   0  0  0  0  0  0  0  0  0 27  0  0
   -0.3502   -1.1351   -0.0620 C   0  0  0  0  0  0  0  0  0 28  0  0
   -1.4135   -2.0825   -0.0078 C   0  0  0  0  0  0  0  0  0 29  0  0
   -2.6596   -1.6636    0.0226 C   0  0  0  0  0  0  0  0  0 30  0  0
   -2.9360   -0.2103    0.0082 C   0  0  0  0  0  0  0  0  0 31  0  0
   -1.9222    0.6721   -0.0476 C   0  0  0  0  0  0  0  0  0 32  0  0
   -3.7432   -2.6971    0.0615 C   0  0  0  0  0  0  0  0  0 33  0  0
   -4.1069   -2.9750   -1.2397 F   0  0  0  0  0  0  0  0  0 34  0  0
   -3.2521   -3.8670    0.6182 F   0  0  0  0  0  0  0  0  0 35  0  0
   -4.8473   -2.2262    0.7283 F   0  0  0  0  0  0  0  0  0 36  0  0
  1  2  1  0
  2 26  1  0
  2  3  2  0
  3  4  1  0
  4  5  1  0
  4 24  2  0
  5  6  2  0
  6 23  1  0
  6  7  1  0
  7  8  2  0
  7  9  1  0
  9 10  1  0
  9 15  1  0
 10 14  1  0
 10 11  1  0
 11 12  1  0
 12 13  1  0
 13 14  1  0
 15 16  2  0
 15 23  1  0
 16 17  1  0
 17 22  1  0
 17 18  2  0
 18 19  1  0
 19 20  2  0
 20 21  1  0
 21 22  2  0
 24 25  1  0
 24 26  1  0
 26 27  1  0
 27 32  1  0
 27 28  2  0
 28 29  1  0
 29 30  2  0
 30 31  1  0
 30 33  1  0
 31 32  2  0
 33 34  1  0
 33 35  1  0
 33 36  1  0
M  END
> <Name>
Molecule

> <MolfileName>
Molecule

> <COMPOUND_ID>
31

> <OSM_ID>
OSM-S-54

> <IC50_nM_Assay01>
34

$$$$
Molecule
  SciTegic10291209353D

 20 22  0  0  0  0            999 V2000
    3.3165    4.1216    0.0004 C   0  0  0  0  0  0  0  0  0  1  0  0
    4.3342    3.2617    0.0006 C   0  0  0  0  0  0  0  0  0  2  0  0
    4.0854    1.8113    0.0003 C   0  0  0  0  0  0  0  0  0  3  0  0
    2.8376    1.3460   -0.0002 C   0  0  0  0  0  0  0  0  0  4  0  0
    1.7228    2.3155   -0.0005 C   0  0  0  0  0  0  0  0  0  5  0  0
    1.9486    3.6252   -0.0002 C   0  0  0  0  0  0  0  0  0  6  0  0
    2.6067   -0.1447   -0.0004 C   0  0  0  0  0  0  0  0  0  7  0  0
    1.3865   -0.6993   -0.0002 C   0  0  0  0  0  0  0  0  0  8  0  0
    1.0596   -2.1538   -0.0002 C   0  0  0  0  0  0  0  0  0  9  0  0
   -0.2190   -2.4114    0.0001 N   0  0  0  0  0  0  0  0  0 10  0  0
   -1.0329   -1.2112    0.0004 C   0  0  0  0  0  0  0  0  0 11  0  0
   -2.3152   -1.1793    0.0005 N   0  0  0  0  0  0  0  0  0 12  0  0
   -3.1135    0.0315    0.0003 C   0  0  0  0  0  0  0  0  0 13  0  0
   -4.4412   -0.0747    0.0004 C   0  0  0  0  0  0  0  0  0 14  0  0
   -5.2830    1.1324    0.0000 C   0  0  0  0  0  0  0  0  0 15  0  0
   -4.7280    2.3433   -0.0004 C   0  0  0  0  0  0  0  0  0 16  0  0
   -3.2795    2.4755   -0.0005 C   0  0  0  0  0  0  0  0  0 17  0  0
   -2.5180    1.3862   -0.0001 C   0  0  0  0  0  0  0  0  0 18  0  0
   -0.0295    0.0908    0.0002 S   0  0  0  0  0  0  0  0  0 19  0  0
    2.0325   -3.1498   -0.0006 O   0  0  0  0  0  0  0  0  0 20  0  0
  1  6  1  0
  1  2  2  0
  2  3  1  0
  3  4  2  0
  4  5  1  0
  4  7  1  0
  5  6  2  0
  7  8  2  0
  8 19  1  0
  8  9  1  0
  9 10  2  0
  9 20  1  0
 10 11  1  0
 11 12  2  0
 11 19  1  0
 12 13  1  0
 13 18  1  0
 13 14  2  0
 14 15  1  0
 15 16  2  0
 16 17  1  0
 17 18  2  0
M  END
> <Name>
Molecule

> <MolfileName>
Molecule

> <COMPOUND_ID>
32

> <OSM_ID>
OSM-S-55

> <IC50_nM_Assay01>
>100000

$$$$
Molecule
  SciTegic10291209353D

 34 38  0  0  0  0            999 V2000
   -0.2000   -3.6446   -0.1020 C   0  0  0  0  0  0  0  0  0  1  0  0
   -1.0816   -2.4212   -0.0465 C   0  0  0  0  0  0  0  0  0  2  0  0
   -2.4261   -2.5001   -0.0784 C   0  0  0  0  0  0  0  0  0  3  0  0
   -2.9619   -1.1119    0.0131 C   0  0  0  0  0  0  0  0  0  4  0  0
   -4.5584   -0.8331    0.0167 C   0  0  0  0  0  0  0  0  0  5  0  0
   -5.2203    0.3773   -0.0196 C   0  0  0  0  0  0  0  0  0  6  0  0
   -6.7104    0.6214    0.0005 C   0  0  0  0  0  0  0  0  0  7  0  0
   -6.9890    2.1266   -0.0158 N   0  0  0  0  0  0  0  0  0  8  0  0
   -8.3003    2.6997   -0.0015 C   0  0  0  0  0  0  0  0  0  9  0  0
   -9.3840    1.9530    0.0089 C   0  0  0  0  0  0  0  0  0 10  0  0
  -10.7176    2.5722    0.0158 C   0  0  0  0  0  0  0  0  0 11  0  0
  -10.8352    3.9006    0.0111 C   0  0  0  0  0  0  0  0  0 12  0  0
   -9.6427    4.7373   -0.0002 C   0  0  0  0  0  0  0  0  0 13  0  0
   -8.4349    4.1740   -0.0065 C   0  0  0  0  0  0  0  0  0 14  0  0
   -5.7744    2.8884   -0.0443 C   0  0  0  0  0  0  0  0  0 15  0  0
   -4.5553    1.8366   -0.0992 S   0  0  0  0  0  0  0  0  0 16  0  0
   -5.6272    4.1767   -0.0175 N   0  0  0  0  0  0  0  0  0 17  0  0
   -4.3260    4.8785   -0.0240 C   0  0  0  0  0  0  0  0  0 18  0  0
   -4.2970    6.2122    0.0092 C   0  0  0  0  0  0  0  0  0 19  0  0
   -3.0000    6.9301    0.0149 C   0  0  0  0  0  0  0  0  0 20  0  0
   -1.8488    6.2604   -0.0083 C   0  0  0  0  0  0  0  0  0 21  0  0
   -1.8697    4.8173   -0.0431 C   0  0  0  0  0  0  0  0  0 22  0  0
   -3.0347    4.1781   -0.0521 C   0  0  0  0  0  0  0  0  0 23  0  0
   -7.5567   -0.2548    0.0293 O   0  0  0  0  0  0  0  0  0 24  0  0
   -1.9047   -0.3080    0.1109 C   0  0  0  0  0  0  0  0  0 25  0  0
   -1.9292    1.1293    0.2935 C   0  0  0  0  0  0  0  0  0 26  0  0
   -0.6681   -1.0381    0.0418 N   0  0  0  0  0  0  0  0  0 27  0  0
    0.7732   -0.4626    0.0243 C   0  0  0  0  0  0  0  0  0 28  0  0
    0.9888    0.8779    0.0061 C   0  0  0  0  0  0  0  0  0 29  0  0
    2.2904    1.4835   -0.0110 C   0  0  0  0  0  0  0  0  0 30  0  0
    2.3908    2.8307   -0.0195 F   0  0  0  0  0  0  0  0  0 31  0  0
    3.3668    0.7205   -0.0144 C   0  0  0  0  0  0  0  0  0 32  0  0
    3.2014   -0.7405   -0.0039 C   0  0  0  0  0  0  0  0  0 33  0  0
    1.9844   -1.2916    0.0135 C   0  0  0  0  0  0  0  0  0 34  0  0
  1  2  1  0
  2 27  1  0
  2  3  2  0
  3  4  1  0
  4  5  1  0
  4 25  2  0
  5  6  2  0
  6 16  1  0
  6  7  1  0
  7  8  1  0
  7 24  2  0
  8  9  1  0
  8 15  1  0
  9 14  1  0
  9 10  2  0
 10 11  1  0
 11 12  2  0
 12 13  1  0
 13 14  2  0
 15 16  1  0
 15 17  2  0
 17 18  1  0
 18 23  1  0
 18 19  2  0
 19 20  1  0
 20 21  2  0
 21 22  1  0
 22 23  2  0
 25 26  1  0
 25 27  1  0
 27 28  1  0
 28 34  1  0
 28 29  2  0
 29 30  1  0
 30 31  1  0
 30 32  2  0
 32 33  1  0
 33 34  2  0
M  END
> <Name>
Molecule

> <MolfileName>
Molecule

> <COMPOUND_ID>
33

> <OSM_ID>
OSM-L-01

> <IC50_nM_Assay01>
3200

$$$$
Molecule
  SciTegic10291209353D

 22 23  0  0  0  0            999 V2000
    1.5444   -3.8862   -0.0689 Cl  0  0  0  0  0  0  0  0  0  1  0  0
    0.2220   -2.7773   -0.1251 C   0  0  0  0  0  0  0  0  0  2  0  0
   -1.0251   -3.2250    0.0213 C   0  0  0  0  0  0  0  0  0  3  0  0
   -2.1570   -2.2997   -0.0081 C   0  0  0  0  0  0  0  0  0  4  0  0
   -3.3379   -2.7511    0.1305 N   0  0  0  0  0  0  0  0  0  5  0  0
   -4.4459   -1.9024    0.1239 C   0  0  0  0  0  0  0  0  0  6  0  0
   -4.2912   -0.5884   -0.0100 C   0  0  0  0  0  0  0  0  0  7  0  0
   -2.9570   -0.0088   -0.1562 C   0  0  0  0  0  0  0  0  0  8  0  0
   -1.9048   -0.8669   -0.1725 C   0  0  0  0  0  0  0  0  0  9  0  0
   -0.4970   -0.4614   -0.3549 C   0  0  0  0  0  0  0  0  0 10  0  0
    0.4894   -1.3532   -0.3306 C   0  0  0  0  0  0  0  0  0 11  0  0
   -2.9006    1.4509   -0.2777 N   0  0  0  0  0  0  0  0  0 12  0  0
   -1.7886    2.3054    0.1238 C   0  0  0  0  0  0  0  0  0 13  0  0
   -1.5648    2.2030    1.6551 C   0  0  0  0  0  0  0  0  0 14  0  0
   -2.0077    3.7750   -0.2587 C   0  0  0  0  0  0  0  0  0 15  0  0
   -0.7255    4.5290    0.1435 C   0  0  0  0  0  0  0  0  0 16  0  0
   -0.8348    6.0320   -0.1544 C   0  0  0  0  0  0  0  0  0 17  0  0
    0.4453    6.6804    0.1956 N   0  0  0  0  0  0  0  0  0 18  0  0
    1.5067    6.0510   -0.6977 C   0  0  0  0  0  0  0  0  0 19  0  0
    2.9855    6.3683   -0.3445 C   0  0  0  0  0  0  0  0  0 20  0  0
    0.2419    8.1641   -0.0082 C   0  0  0  0  0  0  0  0  0 21  0  0
    1.3539    9.0831    0.5651 C   0  0  0  0  0  0  0  0  0 22  0  0
  1  2  1  0
  2 11  1  0
  2  3  2  0
  3  4  1  0
  4  9  1  0
  4  5  2  0
  5  6  1  0
  6  7  2  0
  7  8  1  0
  8  9  2  0
  8 12  1  0
  9 10  1  0
 10 11  2  0
 12 13  1  0
 13 14  1  0
 13 15  1  0
 15 16  1  0
 16 17  1  0
 17 18  1  0
 18 19  1  0
 18 21  1  0
 19 20  1  0
 21 22  1  0
M  END
> <Name>
Molecule

> <MolfileName>
Molecule

> <COMPOUND_ID>
34

> <OSM_ID>
chloroquine

> <IC50_nM_Assay01>
15

$$$$
Molecule
  SciTegic10291209353D

 25 28  0  0  0  0            999 V2000
    1.4648    1.9211   -0.5332 O   0  0  0  0  0  0  0  0  0  1  0  0
    0.4270    1.3112   -0.2537 C   0  0  0  0  0  0  0  0  0  2  0  0
   -0.7959    1.8109   -0.6660 O   0  0  0  0  0  0  0  0  0  3  0  0
   -1.9348    0.9827   -0.7452 C   0  0  2  0  0  0  0  0  0  4  0  0
   -1.8660    0.4798   -1.7158 H   0  0  0  0  0  0  0  0  0  5  0  0
   -3.1848    1.8130   -0.7067 O   0  0  0  0  0  0  0  0  0  6  0  0
   -3.7494    1.9228    0.6639 C   0  0  2  0  0  0  0  0  0  7  0  0
   -2.7285    1.8463    1.6306 O   0  0  0  0  0  0  0  0  0  8  0  0
   -2.0126    0.7334    1.6596 O   0  0  0  0  0  0  0  0  0  9  0  0
   -1.9420   -0.0350    0.4440 C   0  0  1  0  0  0  0  0  0 10  0  0
   -3.1073   -1.0518    0.3069 C   0  0  1  0  0  0  0  0  0 11  0  0
   -3.1231   -1.6591    1.2215 H   0  0  0  0  0  0  0  0  0 12  0  0
   -4.4323   -0.3715    0.0495 C   0  0  0  0  0  0  0  0  0 13  0  0
   -4.8149    0.8197    0.8819 C   0  0  0  0  0  0  0  0  0 14  0  0
   -2.8971   -1.9826   -0.9343 C   0  0  2  0  0  0  0  0  0 15  0  0
   -2.8919   -1.3771   -1.8493 H   0  0  0  0  0  0  0  0  0 16  0  0
   -4.0402   -3.0136   -1.0185 C   0  0  0  0  0  0  0  0  0 17  0  0
   -1.5504   -2.7167   -0.8284 C   0  0  0  0  0  0  0  0  0 18  0  0
   -0.4104   -1.6696   -0.7443 C   0  0  0  0  0  0  0  0  0 19  0  0
   -0.6301   -0.8349    0.5341 C   0  0  1  0  0  0  0  0  0 20  0  0
   -0.6411   -1.5256    1.3882 H   0  0  0  0  0  0  0  0  0 21  0  0
    0.4733    0.2134    0.7672 C   0  0  1  0  0  0  0  0  0 22  0  0
    0.2461    0.6951    1.7270 H   0  0  0  0  0  0  0  0  0 23  0  0
    1.8744   -0.4166    0.8630 C   0  0  0  0  0  0  0  0  0 24  0  0
   -4.4654    3.2710    0.8557 C   0  0  0  0  0  0  0  0  0 25  0  0
  1  2  2  0
  2 22  1  0
  2  3  1  0
  3  4  1  0
  4  5  1  0
  4 10  1  0
  4  6  1  0
  6  7  1  0
  7 14  1  0
  7  8  1  0
  7 25  1  0
  8  9  1  0
 10  9  1  0
 10 20  1  0
 10 11  1  0
 11 12  1  0
 11 13  1  0
 11 15  1  0
 13 14  1  0
 15 16  1  0
 15 17  1  0
 15 18  1  0
 18 19  1  0
 19 20  1  0
 20 21  1  0
 20 22  1  0
 22 23  1  0
 22 24  1  0
M  END
> <Name>
Molecule

> <MolfileName>
Molecule

> <COMPOUND_ID>
35

> <OSM_ID>
artemisinin

> <IC50_nM_Assay01>
3

$$$$
Molecule
  SciTegic10291209353D

 33 36  0  0  0  0            999 V2000
   -4.7850   -5.6787    0.2945 O   0  0  0  0  0  0  0  0  0  1  0  0
   -5.4017   -4.6424    0.0199 C   0  0  0  0  0  0  0  0  0  2  0  0
   -6.7880   -4.6685   -0.0886 O   0  0  0  0  0  0  0  0  0  3  0  0
   -4.6486   -3.3595   -0.2050 C   0  0  0  0  0  0  0  0  0  4  0  0
   -3.1532   -3.6279    0.0235 C   0  0  0  0  0  0  0  0  0  5  0  0
   -2.3333   -2.3927   -0.2237 C   0  0  0  0  0  0  0  0  0  6  0  0
   -2.8793   -1.3572   -0.6183 O   0  0  0  0  0  0  0  0  0  7  0  0
   -0.9363   -2.4826   -0.0516 O   0  0  0  0  0  0  0  0  0  8  0  0
   -0.0920   -1.2961   -0.2737 C   0  0  2  0  0  0  0  0  0  9  0  0
   -0.3397   -0.8513   -1.2468 H   0  0  0  0  0  0  0  0  0 10  0  0
    1.2616   -1.8338   -0.3220 O   0  0  0  0  0  0  0  0  0 11  0  0
    2.2670   -0.8553   -0.6492 C   0  0  2  0  0  0  0  0  0 12  0  0
    2.0443   -0.4422   -1.6408 H   0  0  0  0  0  0  0  0  0 13  0  0
    3.6016   -1.5407   -0.6792 O   0  0  0  0  0  0  0  0  0 14  0  0
    4.2476   -1.5740    0.6523 C   0  0  2  0  0  0  0  0  0 15  0  0
    3.2805   -1.5486    1.6696 O   0  0  0  0  0  0  0  0  0 16  0  0
    2.4872   -0.4921    1.7073 O   0  0  0  0  0  0  0  0  0 17  0  0
    2.2690    0.2157    0.4713 C   0  0  2  0  0  0  0  0  0 18  0  0
    0.9036    0.9116    0.6186 C   0  0  1  0  0  0  0  0  0 19  0  0
    0.9283    1.6110    1.4653 H   0  0  0  0  0  0  0  0  0 20  0  0
    0.5468    1.7187   -0.6551 C   0  0  0  0  0  0  0  0  0 21  0  0
    1.6021    2.8313   -0.8433 C   0  0  0  0  0  0  0  0  0 22  0  0
    2.9849    2.1865   -1.0220 C   0  0  1  0  0  0  0  0  0 23  0  0
    2.9685    1.5503   -1.9164 H   0  0  0  0  0  0  0  0  0 24  0  0
    4.0441    3.2927   -1.2058 C   0  0  0  0  0  0  0  0  0 25  0  0
    3.3347    1.3217    0.2265 C   0  0  2  0  0  0  0  0  0 26  0  0
    3.3551    1.9633    1.1176 H   0  0  0  0  0  0  0  0  0 27  0  0
    4.6969    0.7369   -0.0821 C   0  0  0  0  0  0  0  0  0 28  0  0
    5.2251   -0.3825    0.7757 C   0  0  0  0  0  0  0  0  0 29  0  0
   -0.1310   -0.2017    0.9051 C   0  0  1  0  0  0  0  0  0 30  0  0
    0.1529   -0.7076    1.8364 H   0  0  0  0  0  0  0  0  0 31  0  0
   -1.4971    0.4927    1.1090 C   0  0  0  0  0  0  0  0  0 32  0  0
    5.0781   -2.8566    0.8335 C   0  0  0  0  0  0  0  0  0 33  0  0
  1  2  2  0
  2  3  1  0
  2  4  1  0
  4  5  1  0
  5  6  1  0
  6  7  2  0
  6  8  1  0
  8  9  1  0
  9 10  1  0
  9 30  1  0
  9 11  1  0
 11 12  1  0
 12 13  1  0
 12 18  1  0
 12 14  1  0
 14 15  1  0
 15 29  1  0
 15 16  1  0
 15 33  1  0
 16 17  1  0
 18 17  1  0
 18 26  1  0
 18 19  1  0
 19 20  1  0
 19 21  1  0
 19 30  1  0
 21 22  1  0
 22 23  1  0
 23 24  1  0
 23 25  1  0
 23 26  1  0
 26 27  1  0
 26 28  1  0
 28 29  1  0
 30 31  1  0
 30 32  1  0
M  END
> <Name>
Molecule

> <MolfileName>
Molecule

> <COMPOUND_ID>
36

> <OSM_ID>
artesunate

$$$$
Molecule
  SciTegic10291209353D

 17 18  0  0  0  0            999 V2000
    3.5789    0.7114   -0.0001 Cl  0  0  0  0  0  0  0  0  0  1  0  0
    2.0426   -0.0792    0.0000 C   0  0  0  0  0  0  0  0  0  2  0  0
    1.9730   -1.4055   -0.0002 C   0  0  0  0  0  0  0  0  0  3  0  0
    0.6695   -2.0740   -0.0001 C   0  0  0  0  0  0  0  0  0  4  0  0
   -0.4771   -1.3865    0.0001 C   0  0  0  0  0  0  0  0  0  5  0  0
   -1.8660   -2.1438    0.0001 C   0  0  0  0  0  0  0  0  0  6  0  0
   -1.9177   -3.4952    0.0001 C   0  0  0  0  0  0  0  0  0  7  0  0
   -3.1500   -4.1550    0.0001 N   0  0  0  0  0  0  0  0  0  8  0  0
   -4.2542   -3.5335    0.0002 C   0  0  0  0  0  0  0  0  0  9  0  0
   -4.2935   -2.1501    0.0003 N   0  0  0  0  0  0  0  0  0 10  0  0
   -3.2381   -1.4433    0.0002 C   0  0  0  0  0  0  0  0  0 11  0  0
   -3.4497    0.0541    0.0003 C   0  0  0  0  0  0  0  0  0 12  0  0
   -4.9567    0.3700    0.0002 C   0  0  0  0  0  0  0  0  0 13  0  0
   -5.4490   -4.2541    0.0002 N   0  0  0  0  0  0  0  0  0 14  0  0
   -0.7795   -4.3071    0.0000 N   0  0  0  0  0  0  0  0  0 15  0  0
   -0.3629    0.0920    0.0003 C   0  0  0  0  0  0  0  0  0 16  0  0
    0.8198    0.7029    0.0002 C   0  0  0  0  0  0  0  0  0 17  0  0
  1  2  1  0
  2 17  1  0
  2  3  2  0
  3  4  1  0
  4  5  2  0
  5  6  1  0
  5 16  1  0
  6 11  1  0
  6  7  2  0
  7  8  1  0
  7 15  1  0
  8  9  2  0
  9 10  1  0
  9 14  1  0
 10 11  2  0
 11 12  1  0
 12 13  1  0
 16 17  2  0
M  END
> <Name>
Molecule

> <MolfileName>
Molecule

> <COMPOUND_ID>
37

> <OSM_ID>
Pyrimethamine

> <IC50_nM_Assay01>
9

$$$$
Molecule
  SciTegic10291209353D

 33 35  0  0  0  0            999 V2000
    4.1994   -1.3183    0.5021 F   0  0  0  0  0  0  0  0  0  1  0  0
    3.0975   -2.0824    0.1706 C   0  0  0  0  0  0  0  0  0  2  0  0
    2.8556   -3.0760    1.0928 F   0  0  0  0  0  0  0  0  0  3  0  0
    3.3316   -2.6866   -1.0458 F   0  0  0  0  0  0  0  0  0  4  0  0
    1.8974   -1.2072    0.0249 C   0  0  0  0  0  0  0  0  0  5  0  0
    0.6628   -1.7135    0.1107 C   0  0  0  0  0  0  0  0  0  6  0  0
   -0.5193   -0.8345   -0.0360 C   0  0  0  0  0  0  0  0  0  7  0  0
   -1.8540   -1.4640    0.0449 O   0  0  0  0  0  0  0  0  0  8  0  0
   -3.2414   -0.8566   -0.0015 C   0  0  0  0  0  0  0  0  0  9  0  0
   -3.5451    0.4745    0.0012 C   0  0  0  0  0  0  0  0  0 10  0  0
   -2.5945    1.4743    0.0821 O   0  0  0  0  0  0  0  0  0 11  0  0
   -3.1707    2.7960    0.0857 C   0  0  0  0  0  0  0  0  0 12  0  0
   -4.9259    0.9524   -0.0583 C   0  0  0  0  0  0  0  0  0 13  0  0
   -5.9931    0.1821   -0.1090 C   0  0  0  0  0  0  0  0  0 14  0  0
   -7.2501    0.8638   -0.1539 N   0  0  0  0  0  0  0  0  0 15  0  0
   -8.5254    0.2692    0.1115 C   0  0  0  0  0  0  0  0  0 16  0  0
   -8.6304   -0.0815    1.6168 C   0  0  0  0  0  0  0  0  0 17  0  0
   -9.6441    1.2556   -0.2428 C   0  0  0  0  0  0  0  0  0 18  0  0
  -10.9862    0.5677    0.0466 C   0  0  0  0  0  0  0  0  0 19  0  0
  -12.1492    1.5201   -0.2453 C   0  0  0  0  0  0  0  0  0 20  0  0
  -13.4094    0.8220    0.0401 N   0  0  0  0  0  0  0  0  0 21  0  0
   -5.8224   -1.2833   -0.1134 C   0  0  0  0  0  0  0  0  0 22  0  0
   -6.8415   -2.0502   -0.1760 N   0  0  0  0  0  0  0  0  0 23  0  0
   -6.7378   -3.4355   -0.1738 C   0  0  0  0  0  0  0  0  0 24  0  0
   -7.8830   -4.2394   -0.2432 O   0  0  0  0  0  0  0  0  0 25  0  0
   -9.0650   -3.4391   -0.3197 C   0  0  0  0  0  0  0  0  0 26  0  0
   -5.5460   -4.0067   -0.1042 C   0  0  0  0  0  0  0  0  0 27  0  0
   -4.3391   -3.1963   -0.0403 C   0  0  0  0  0  0  0  0  0 28  0  0
   -4.4478   -1.8442   -0.0482 C   0  0  0  0  0  0  0  0  0 29  0  0
   -3.0392   -3.9503    0.0254 C   0  0  0  0  0  0  0  0  0 30  0  0
   -0.2909    0.4527   -0.2684 C   0  0  0  0  0  0  0  0  0 31  0  0
    1.0474    1.0039   -0.3570 C   0  0  0  0  0  0  0  0  0 32  0  0
    2.0966    0.2095   -0.2162 C   0  0  0  0  0  0  0  0  0 33  0  0
  1  2  1  0
  2  3  1  0
  2  4  1  0
  2  5  1  0
  5 33  1  0
  5  6  2  0
  6  7  1  0
  7  8  1  0
  7 31  2  0
  8  9  1  0
  9 29  1  0
  9 10  2  0
 10 11  1  0
 10 13  1  0
 11 12  1  0
 13 14  2  0
 14 15  1  0
 14 22  1  0
 15 16  1  0
 16 17  1  0
 16 18  1  0
 18 19  1  0
 19 20  1  0
 20 21  1  0
 22 29  1  0
 22 23  2  0
 23 24  1  0
 24 25  1  0
 24 27  2  0
 25 26  1  0
 27 28  1  0
 28 29  2  0
 28 30  1  0
 31 32  1  0
 32 33  2  0
M  END
> <Name>
Molecule

> <MolfileName>
Molecule

> <COMPOUND_ID>
38

> <OSM_ID>
Tafenoquine

$$$$
Molecule
  SciTegic10291209353D

 37 42  0  0  0  0            999 V2000
   -5.5131    2.8279    0.2570 Cl  0  0  0  0  0  0  0  0  0  1  0  0
   -4.1445    1.8194   -0.0414 C   0  0  0  0  0  0  0  0  0  2  0  0
   -2.9268    2.2178    0.3270 C   0  0  0  0  0  0  0  0  0  3  0  0
   -1.7622    1.3587    0.0758 C   0  0  0  0  0  0  0  0  0  4  0  0
   -1.9094    0.1830   -0.5149 C   0  0  0  0  0  0  0  0  0  5  0  0
   -3.2687   -0.2361   -0.9337 C   0  0  0  0  0  0  0  0  0  6  0  0
   -4.3213    0.5400   -0.7007 C   0  0  0  0  0  0  0  0  0  7  0  0
   -0.7216   -0.7224   -0.7819 C   0  0  0  0  0  0  0  0  0  8  0  0
   -0.9219   -1.9982   -1.4668 N   0  0  0  0  0  0  0  0  0  9  0  0
   -1.6458   -2.9502   -0.9794 C   0  0  0  0  0  0  0  0  0 10  0  0
   -1.9752   -4.2169   -1.7574 C   0  0  0  0  0  0  0  0  0 11  0  0
   -3.0261   -4.9630   -1.3489 C   0  0  0  0  0  0  0  0  0 12  0  0
   -3.7666   -4.4872   -0.2189 C   0  0  0  0  0  0  0  0  0 13  0  0
   -4.8839   -4.9340    0.0500 O   0  0  0  0  0  0  0  0  0 14  0  0
   -3.0921   -3.7038    0.7462 C   0  0  0  0  0  0  0  0  0 15  0  0
   -2.0889   -2.9105    0.4003 C   0  0  0  0  0  0  0  0  0 16  0  0
   -3.2911   -4.1246    2.1496 C   0  0  0  0  0  0  0  0  0 17  0  0
   -2.6333   -5.5271    2.0307 N   0  0  0  0  0  0  0  0  0 18  0  0
   -2.7784   -6.4710    3.1198 C   0  0  0  0  0  0  0  0  0 19  0  0
   -1.8806   -7.6599    2.6029 C   0  0  0  0  0  0  0  0  0 20  0  0
   -0.7884   -6.9648    1.7516 C   0  0  0  0  0  0  0  0  0 21  0  0
   -1.1412   -5.4943    1.9277 C   0  0  0  0  0  0  0  0  0 22  0  0
   -3.3944   -6.3507   -2.0075 C   0  0  0  0  0  0  0  0  0 23  0  0
   -4.5809   -7.1641   -1.3787 N   0  0  0  0  0  0  0  0  0 24  0  0
   -4.4789   -7.6326    0.0307 C   0  0  0  0  0  0  0  0  0 25  0  0
   -5.8023   -8.3782    0.1555 C   0  0  0  0  0  0  0  0  0 26  0  0
   -5.7482   -9.2540   -1.1033 C   0  0  0  0  0  0  0  0  0 27  0  0
   -4.7560   -8.4755   -2.0405 C   0  0  0  0  0  0  0  0  0 28  0  0
    0.5072   -0.2672   -0.4212 C   0  0  0  0  0  0  0  0  0 29  0  0
    0.6109    1.0439    0.2164 C   0  0  0  0  0  0  0  0  0 30  0  0
   -0.5090    1.8094    0.4625 N   0  0  0  0  0  0  0  0  0 31  0  0
    1.8071    1.5244    0.5628 C   0  0  0  0  0  0  0  0  0 32  0  0
    3.0060    0.7451    0.3163 C   0  0  0  0  0  0  0  0  0 33  0  0
    2.9402   -0.4591   -0.2536 C   0  0  0  0  0  0  0  0  0 34  0  0
    4.1228   -1.1942   -0.4738 O   0  0  0  0  0  0  0  0  0 35  0  0
    5.2854   -0.4676   -0.0166 C   0  0  0  0  0  0  0  0  0 36  0  0
    1.6779   -1.0091   -0.6435 N   0  0  0  0  0  0  0  0  0 37  0  0
  1  2  1  0
  2  7  1  0
  2  3  2  0
  3  4  1  0
  4 31  1  0
  4  5  2  0
  5  6  1  0
  5  8  1  0
  6  7  2  0
  8  9  1  0
  8 29  2  0
  9 10  2  0
 10 16  1  0
 10 11  1  0
 11 12  2  0
 12 13  1  0
 12 23  1  0
 13 14  2  0
 13 15  1  0
 15 16  2  0
 15 17  1  0
 17 18  1  0
 18 22  1  0
 18 19  1  0
 19 20  1  0
 20 21  1  0
 21 22  1  0
 23 24  1  0
 24 28  1  0
 24 25  1  0
 25 26  1  0
 26 27  1  0
 27 28  1  0
 29 37  1  0
 29 30  1  0
 30 31  1  0
 30 32  2  0
 32 33  1  0
 33 34  2  0
 34 35  1  0
 34 37  1  0
 35 36  1  0
M  END
> <Name>
Molecule

> <MolfileName>
Molecule

> <COMPOUND_ID>
39

> <OSM_ID>
Pyronaridine

> <IC50_nM_Assay01>
4

$$$$
Molecule
  SciTegic10291209353D

 46 46  0  0  0  0            999 V2000
    2.1928   -2.6204   -0.6772 O   0  0  0  0  0  0  0  0  0  1  0  0
    1.1530   -2.3304   -0.0741 C   0  0  0  0  0  0  0  0  0  2  0  0
    1.1804   -0.9667    0.7346 C   0  0  1  0  0  0  0  0  0  3  0  0
    1.7123   -1.1638    1.6767 H   0  0  0  0  0  0  0  0  0  4  0  0
    2.0179   -0.0702   -0.0204 N   0  0  0  0  0  0  0  0  0  5  0  0
    2.6155    1.0499    0.4294 C   0  0  0  0  0  0  0  0  0  6  0  0
    2.5259    1.4359    1.5996 O   0  0  0  0  0  0  0  0  0  7  0  0
    3.4274    1.7628   -0.6035 C   0  0  1  0  0  0  0  0  0  8  0  0
    2.8966    1.6984   -1.5614 H   0  0  0  0  0  0  0  0  0  9  0  0
    3.8682    3.1599   -0.3402 N   0  0  0  0  0  0  0  0  0 10  0  0
    3.1133    4.2907   -0.4475 C   0  0  0  0  0  0  0  0  0 11  0  0
    1.9069    4.2038   -0.7094 O   0  0  0  0  0  0  0  0  0 12  0  0
    3.8425    5.7168   -0.4759 C   0  0  1  0  0  0  0  0  0 13  0  0
    3.7611    6.0886   -1.4929 H   0  0  0  0  0  0  0  0  0 14  0  0
    3.2289    6.7981    0.3562 N   0  0  0  0  0  0  0  0  0 15  0  0
    2.8579    7.9413   -0.3161 C   0  0  0  0  0  0  0  0  0 16  0  0
    2.9626    7.9575   -1.5404 O   0  0  0  0  0  0  0  0  0 17  0  0
    2.5646    9.2858    0.4110 C   0  0  1  0  0  0  0  0  0 18  0  0
    2.8797    9.2155    1.4588 H   0  0  0  0  0  0  0  0  0 19  0  0
    3.3422   10.3603   -0.3171 N   0  0  0  0  0  0  0  0  0 20  0  0
    4.4829   10.9285    0.2852 C   0  0  0  0  0  0  0  0  0 21  0  0
    4.8325   10.5763    1.4135 O   0  0  0  0  0  0  0  0  0 22  0  0
    5.3188   11.9288   -0.4746 C   0  0  0  0  0  0  0  0  0 23  0  0
    2.9837   10.8167   -1.6634 C   0  0  0  0  0  0  0  0  0 24  0  0
    1.0433    9.6437    0.3566 C   0  0  1  0  0  0  0  0  0 25  0  0
    0.7036    9.7163   -0.6832 H   0  0  0  0  0  0  0  0  0 26  0  0
    0.2350    8.5518    1.0778 C   0  0  0  0  0  0  0  0  0 27  0  0
    0.8132   11.0099    1.0785 C   0  0  0  0  0  0  0  0  0 28  0  0
   -0.6735   11.4057    1.0269 C   0  0  0  0  0  0  0  0  0 29  0  0
    5.4091    5.5473   -0.1384 C   0  0  1  0  0  0  0  0  0 30  0  0
    5.5284    5.0950    0.8542 H   0  0  0  0  0  0  0  0  0 31  0  0
    6.0691    4.6780   -1.2108 C   0  0  0  0  0  0  0  0  0 32  0  0
    6.2664    6.8426   -0.1584 C   0  0  0  0  0  0  0  0  0 33  0  0
    5.9584    7.7603    1.0291 C   0  0  0  0  0  0  0  0  0 34  0  0
    4.6890    0.8679   -0.7301 C   0  0  2  0  0  0  0  0  0 35  0  0
    4.3799   -0.1632   -0.9430 H   0  0  0  0  0  0  0  0  0 36  0  0
    5.4138    0.9008    0.5041 O   0  0  0  0  0  0  0  0  0 37  0  0
    5.5932    1.3433   -1.8717 C   0  0  0  0  0  0  0  0  0 38  0  0
   -0.1943   -0.2859    1.1198 C   0  0  0  0  0  0  0  0  0 39  0  0
   -1.1243    0.1330   -0.0759 C   0  0  0  0  0  0  0  0  0 40  0  0
   -0.5080    1.2058   -0.9946 C   0  0  0  0  0  0  0  0  0 41  0  0
   -2.4338    0.6875    0.5035 C   0  0  0  0  0  0  0  0  0 42  0  0
   -0.0018   -3.3849   -0.1730 C   0  0  2  0  0  0  0  0  0 43  0  0
   -1.3568   -2.8826   -0.1919 O   0  0  0  0  0  0  0  0  0 44  0  0
   -0.9278   -3.5842    1.0031 C   0  0  0  0  0  0  0  0  0 45  0  0
    0.2292   -4.6470   -1.0287 C   0  0  0  0  0  0  0  0  0 46  0  0
  1  2  2  0
  2  3  1  0
  3  4  1  0
  3  5  1  0
  3 39  1  0
  5  6  1  0
  6  7  2  0
  6  8  1  0
  8  9  1  0
  8 10  1  0
  8 35  1  0
 10 11  1  0
 11 12  2  0
 11 13  1  0
 13 14  1  0
 13 15  1  0
 13 30  1  0
 15 16  1  0
 16 17  2  0
 16 18  1  0
 18 19  1  0
 18 20  1  0
 18 25  1  0
 20 21  1  0
 20 24  1  0
 21 22  2  0
 21 23  1  0
 25 26  1  0
 25 27  1  0
 25 28  1  0
 28 29  1  0
 30 31  1  0
 30 32  1  0
 30 33  1  0
 33 34  1  0
 35 36  1  0
 35 37  1  0
 35 38  1  0
 39 40  1  0
 40 41  1  0
 40 42  1  0
 43  2  1  0
 43 45  1  0
 43 44  1  0
 43 46  1  0
 44 45  1  0
M  END
> <Name>
Molecule

> <MolfileName>
Molecule

> <COMPOUND_ID>
40

> <OSM_ID>
Stan-Epoxomicin

$$$$
Molecule
  SciTegic10291209353D

 28 31  0  0  0  0            999 V2000
    2.4533    1.8316   -5.3120 O   0  0  0  0  0  0  0  0  0  1  0  0
    3.7454    1.3928   -5.6189 C   0  0  0  0  0  0  0  0  0  2  0  0
    4.2441    1.7773   -6.9480 C   0  0  0  0  0  0  0  0  0  3  0  0
    3.5436    2.4636   -7.6898 O   0  0  0  0  0  0  0  0  0  4  0  0
    5.5480    1.3489   -7.3866 C   0  0  0  0  0  0  0  0  0  5  0  0
    5.9875    1.6898   -8.5993 C   0  0  0  0  0  0  0  0  0  6  0  0
    7.3067    1.2418   -9.0417 C   0  0  0  0  0  0  0  0  0  7  0  0
    8.0571    0.4958   -8.2336 C   0  0  0  0  0  0  0  0  0  8  0  0
    7.5608    0.1316   -6.9009 C   0  0  0  0  0  0  0  0  0  9  0  0
    6.3559    0.5505   -6.5099 C   0  0  0  0  0  0  0  0  0 10  0  0
    5.8450    0.2024   -5.1879 C   0  0  0  0  0  0  0  0  0 11  0  0
    6.5270   -0.4843   -4.4289 O   0  0  0  0  0  0  0  0  0 12  0  0
    4.4957    0.6588   -4.7717 C   0  0  0  0  0  0  0  0  0 13  0  0
    4.0216    0.2278   -3.3525 C   0  0  0  0  0  0  0  0  0 14  0  0
    4.8885    0.0048   -2.7155 H   0  0  0  0  0  0  0  0  0 15  0  0
    3.2060   -1.0795   -3.5015 C   0  0  0  0  0  0  0  0  0 16  0  0
    2.6769   -1.5619   -2.1201 C   0  0  0  0  0  0  0  0  0 17  0  0
    1.7458   -0.4630   -1.5649 C   0  0  0  0  0  0  0  0  0 18  0  0
    0.9467   -0.2303   -2.2792 H   0  0  0  0  0  0  0  0  0 19  0  0
    2.5703    0.8193   -1.3462 C   0  0  0  0  0  0  0  0  0 20  0  0
    3.1214    1.2979   -2.6865 C   0  0  0  0  0  0  0  0  0 21  0  0
    1.1175   -0.7990   -0.2483 C   0  0  0  0  0  0  0  0  0 22  0  0
    1.6810   -1.6432    0.6148 C   0  0  0  0  0  0  0  0  0 23  0  0
    1.0180   -1.9056    1.9055 C   0  0  0  0  0  0  0  0  0 24  0  0
   -0.1328   -1.2982    2.2032 C   0  0  0  0  0  0  0  0  0 25  0  0
   -0.9106   -1.5923    3.7179 Cl  0  0  0  0  0  0  0  0  0 26  0  0
   -0.7403   -0.3780    1.2505 C   0  0  0  0  0  0  0  0  0 27  0  0
   -0.1453   -0.1424    0.0867 C   0  0  0  0  0  0  0  0  0 28  0  0
  1  2  1  0
  2 13  2  0
  2  3  1  0
  3  4  2  0
  3  5  1  0
  5 10  1  0
  5  6  2  0
  6  7  1  0
  7  8  2  0
  8  9  1  0
  9 10  2  0
 10 11  1  0
 11 12  2  0
 11 13  1  0
 13 14  1  0
 14 15  1  0
 14 21  1  0
 14 16  1  0
 16 17  1  0
 17 18  1  0
 18 19  1  0
 18 20  1  0
 18 22  1  0
 20 21  1  0
 22 28  1  0
 22 23  2  0
 23 24  1  0
 24 25  2  0
 25 26  1  0
 25 27  1  0
 27 28  2  0
M  END
> <Name>
Molecule

> <MolfileName>
Molecule

> <COMPOUND_ID>
41

> <OSM_ID>
Stan-Atovaquone

$$$$
Molecule
  SciTegic10291209353D

 21 22  0  0  0  0            999 V2000
   20.2984   -9.8956   -0.0814 C   0  0  0  0  0  0  0  0  0  1  0  0
   20.3615  -11.2207    0.0478 C   0  0  0  0  0  0  0  0  0  2  0  0
   21.6646  -11.8960    0.0937 C   0  0  0  0  0  0  0  0  0  3  0  0
   22.7861  -11.1845    0.0057 C   0  0  0  0  0  0  0  0  0  4  0  0
   22.7142   -9.7332   -0.1300 C   0  0  0  0  0  0  0  0  0  5  0  0
   21.5318   -9.1191   -0.1739 C   0  0  0  0  0  0  0  0  0  6  0  0
   21.4982   -7.6295   -0.2835 C   0  0  0  0  0  0  0  0  0  7  0  0
   22.8941   -7.2331   -0.3105 N   0  0  0  0  0  0  0  0  0  8  0  0
   23.1325   -5.5381   -0.0880 S   0  0  0  0  0  0  0  0  0  9  0  0
   22.5463   -4.7242   -1.2254 O   0  0  0  0  0  0  0  0  0 10  0  0
   22.5139   -5.0840    1.2199 O   0  0  0  0  0  0  0  0  0 11  0  0
   24.8747   -5.3454   -0.0157 C   0  0  0  0  0  0  0  0  0 12  0  0
   25.6636   -6.3301   -0.0632 N   0  0  0  0  0  0  0  0  0 13  0  0
   26.8769   -5.8595    0.0214 N   0  0  0  0  0  0  0  0  0 14  0  0
   26.8078   -4.4468    0.1348 C   0  0  0  0  0  0  0  0  0 15  0  0
   25.5693   -4.1412    0.1105 N   0  0  0  0  0  0  0  0  0 16  0  0
   28.0272   -6.7278   -0.0080 C   0  0  0  0  0  0  0  0  0 17  0  0
   27.7848   -7.9456   -0.1177 O   0  0  0  0  0  0  0  0  0 18  0  0
   29.4188   -6.3614    0.0685 N   0  0  0  0  0  0  0  0  0 19  0  0
   29.8999   -5.0051    0.1983 C   0  0  0  0  0  0  0  0  0 20  0  0
   30.3919   -7.4109    0.0112 C   0  0  0  0  0  0  0  0  0 21  0  0
  1  2  2  0
  2  3  1  0
  3  4  2  0
  4  5  1  0
  5  6  2  0
  6  1  1  0
  6  7  1  0
  7  8  1  0
  8  9  1  0
  9 10  2  0
  9 11  2  0
  9 12  1  0
 12 13  2  0
 13 14  1  0
 14 15  1  0
 15 16  2  0
 16 12  1  0
 14 17  1  0
 17 18  2  0
 17 19  1  0
 19 20  1  0
 19 21  1  0
M  END
> <Name>
Molecule

> <OSM_ID>
OSM-S-56

> <Chemist_code>
JRC12-4a

$$$$
Molecule
  SciTegic10291209353D

 20 21  0  0  0  0            999 V2000
   26.1087   -7.7645    0.0002 C   0  0  0  0  0  0  0  0  0  1  0  0
   24.7887   -7.8936    0.0001 C   0  0  0  0  0  0  0  0  0  2  0  0
   24.4713   -9.3084    0.0002 N   0  0  0  0  0  0  0  0  0  3  0  0
   25.7705   -9.9811    0.0004 C   0  0  0  0  0  0  0  0  0  4  0  0
   26.7477   -9.0717    0.0003 C   0  0  0  0  0  0  0  0  0  5  0  0
   23.1052   -9.9393    0.0001 C   0  0  0  0  0  0  0  0  0  6  0  0
   21.9975   -9.1922   -0.0006 C   0  0  0  0  0  0  0  0  0  7  0  0
   20.6630   -9.7895   -0.0008 C   0  0  0  0  0  0  0  0  0  8  0  0
   20.5250  -11.1101   -0.0003 C   0  0  0  0  0  0  0  0  0  9  0  0
   21.7078  -11.9572    0.0004 C   0  0  0  0  0  0  0  0  0 10  0  0
   22.9220  -11.4093    0.0006 C   0  0  0  0  0  0  0  0  0 11  0  0
   19.3017  -11.6584   -0.0005 F   0  0  0  0  0  0  0  0  0 12  0  0
   26.8266   -6.4471    0.0002 C   0  0  0  0  0  0  0  0  0 13  0  0
   28.2778   -6.6460    0.0000 N   0  0  0  0  0  0  0  0  0 14  0  0
   28.9220   -5.3252    0.0001 C   0  0  0  0  0  0  0  0  0 15  0  0
   30.4116   -5.4805   -0.0003 C   0  0  0  0  0  0  0  0  0 16  0  0
   31.2290   -4.3480    0.0000 N   0  0  0  0  0  0  0  0  0 17  0  0
   30.9162   -6.6086   -0.0008 O   0  0  0  0  0  0  0  0  0 18  0  0
   23.8628   -6.6889    0.0000 C   0  0  0  0  0  0  0  0  0 19  0  0
   26.0697  -11.4648    0.0005 C   0  0  0  0  0  0  0  0  0 20  0  0
  1  2  2  0
  2  3  1  0
  3  4  1  0
  4  5  2  0
  5  1  1  0
  3  6  1  0
  6  7  2  0
  7  8  1  0
  8  9  2  0
  9 10  1  0
 10 11  2  0
 11  6  1  0
  9 12  1  0
  1 13  1  0
 13 14  1  0
 14 15  1  0
 15 16  1  0
 16 17  1  0
 16 18  2  0
  2 19  1  0
  4 20  1  0
M  END
> <Name>
Molecule

> <OSM_ID>
OSM-S-58

> <Chemist_code>
PMY38-5-B

$$$$
Molecule
  SciTegic10291209353D

 21 22  0  0  0  0            999 V2000
   26.1159   -7.7400    0.0000 C   0  0  0  0  0  0  0  0  0  1  0  0
   24.7854   -7.8707    0.0001 C   0  0  0  0  0  0  0  0  0  2  0  0
   24.4705   -9.2935    0.0002 N   0  0  0  0  0  0  0  0  0  3  0  0
   25.7662   -9.9641    0.0002 C   0  0  0  0  0  0  0  0  0  4  0  0
   26.7428   -9.0563    0.0000 C   0  0  0  0  0  0  0  0  0  5  0  0
   23.1020   -9.9332    0.0002 C   0  0  0  0  0  0  0  0  0  6  0  0
   21.9890   -9.1925   -0.0003 C   0  0  0  0  0  0  0  0  0  7  0  0
   20.6577   -9.7941   -0.0004 C   0  0  0  0  0  0  0  0  0  8  0  0
   20.5245  -11.1146   -0.0001 C   0  0  0  0  0  0  0  0  0  9  0  0
   21.7110  -11.9569    0.0004 C   0  0  0  0  0  0  0  0  0 10  0  0
   22.9232  -11.4043    0.0005 C   0  0  0  0  0  0  0  0  0 11  0  0
   19.3031  -11.6669   -0.0003 F   0  0  0  0  0  0  0  0  0 12  0  0
   26.8873   -6.4662   -0.0002 C   0  0  0  0  0  0  0  0  0 13  0  0
   28.2142   -6.4919   -0.0004 N   0  0  0  0  0  0  0  0  0 14  0  0
   28.9237   -5.2435   -0.0006 C   0  0  0  0  0  0  0  0  0 15  0  0
   30.4009   -5.4825    0.0000 C   0  0  0  0  0  0  0  0  0 16  0  0
   31.2797   -4.3966    0.0001 N   0  0  0  0  0  0  0  0  0 17  0  0
   30.8420   -6.6367    0.0006 O   0  0  0  0  0  0  0  0  0 18  0  0
   23.8212   -6.6890    0.0001 C   0  0  0  0  0  0  0  0  0 19  0  0
   26.0670  -11.4478    0.0003 C   0  0  0  0  0  0  0  0  0 20  0  0
   26.3225   -5.3666   -0.0003 O   0  0  0  0  0  0  0  0  0 21  0  0
  1  2  2  0
  2  3  1  0
  3  4  1  0
  4  5  2  0
  5  1  1  0
  3  6  1  0
  6  7  2  0
  7  8  1  0
  8  9  2  0
  9 10  1  0
 10 11  2  0
 11  6  1  0
  9 12  1  0
  1 13  1  0
 13 14  1  0
 14 15  1  0
 15 16  1  0
 16 17  1  0
 16 18  2  0
  2 19  1  0
  4 20  1  0
 13 21  2  0
M  END
> <Name>
Molecule

> <OSM_ID>
OSM-S-59

> <Chemist_code>
PMY55-1

$$$$
Molecule
  SciTegic10291209353D

 21 22  0  0  0  0            999 V2000
   26.1753   -7.9026    0.0461 C   0  0  0  0  0  0  0  0  0  1  0  0
   24.8504   -7.9875   -0.0183 C   0  0  0  0  0  0  0  0  0  2  0  0
   24.4752   -9.3903    0.0516 N   0  0  0  0  0  0  0  0  0  3  0  0
   25.7404  -10.1106    0.1670 C   0  0  0  0  0  0  0  0  0  4  0  0
   26.7517   -9.2436    0.1722 C   0  0  0  0  0  0  0  0  0  5  0  0
   23.0866   -9.9714    0.0250 C   0  0  0  0  0  0  0  0  0  6  0  0
   22.0053   -9.1889   -0.0345 C   0  0  0  0  0  0  0  0  0  7  0  0
   20.6510   -9.7458   -0.0548 C   0  0  0  0  0  0  0  0  0  8  0  0
   20.4706  -11.0613   -0.0144 C   0  0  0  0  0  0  0  0  0  9  0  0
   21.6236  -11.9433    0.0488 C   0  0  0  0  0  0  0  0  0 10  0  0
   22.8534  -11.4338    0.0679 C   0  0  0  0  0  0  0  0  0 11  0  0
   19.2314  -11.5724   -0.0315 F   0  0  0  0  0  0  0  0  0 12  0  0
   26.9394   -6.5789    0.0132 C   0  0  0  0  0  0  0  0  0 13  0  0
   28.4205   -6.7118   -0.0447 N   0  0  0  0  0  0  0  0  0 14  0  0
   28.9962   -5.3574    0.1057 C   0  0  0  0  0  0  0  0  0 15  0  0
   30.5053   -5.3903    0.2028 C   0  0  0  0  0  0  0  0  0 16  0  0
   31.2252   -4.1959    0.1373 N   0  0  0  0  0  0  0  0  0 17  0  0
   31.1044   -6.4553    0.3959 O   0  0  0  0  0  0  0  0  0 18  0  0
   23.9704   -6.7557   -0.1438 C   0  0  0  0  0  0  0  0  0 19  0  0
   25.9801  -11.6005    0.2788 C   0  0  0  0  0  0  0  0  0 20  0  0
   28.8394   -7.2487   -1.3699 C   0  0  0  0  0  0  0  0  0 21  0  0
  1  2  2  0
  2  3  1  0
  3  4  1  0
  4  5  2  0
  5  1  1  0
  3  6  1  0
  6  7  2  0
  7  8  1  0
  8  9  2  0
  9 10  1  0
 10 11  2  0
 11  6  1  0
  9 12  1  0
  1 13  1  0
 13 14  1  0
 14 15  1  0
 15 16  1  0
 16 17  1  0
 16 18  2  0
  2 19  1  0
  4 20  1  0
 14 21  1  0
M  END
> <Name>
Molecule

> <OSM_ID>
OSM-S-60

> <Chemist_code>
PMY56-1

$$$$
Molecule
  SciTegic10291209353D

 24 25  0  0  0  0            999 V2000
   25.2731   -7.6732   -0.0749 C   0  0  0  0  0  0  0  0  0  1  0  0
   23.9381   -7.8316   -0.0508 C   0  0  0  0  0  0  0  0  0  2  0  0
   23.6554   -9.2565    0.0356 N   0  0  0  0  0  0  0  0  0  3  0  0
   24.9624   -9.9013    0.0690 C   0  0  0  0  0  0  0  0  0  4  0  0
   25.9231   -8.9762    0.0083 C   0  0  0  0  0  0  0  0  0  5  0  0
   22.2921   -9.9172    0.0473 C   0  0  0  0  0  0  0  0  0  6  0  0
   21.1704   -9.1926    0.0320 C   0  0  0  0  0  0  0  0  0  7  0  0
   19.8465   -9.8049    0.0272 C   0  0  0  0  0  0  0  0  0  8  0  0
   19.7274  -11.1260    0.0349 C   0  0  0  0  0  0  0  0  0  9  0  0
   20.9244  -11.9562    0.0534 C   0  0  0  0  0  0  0  0  0 10  0  0
   22.1323  -11.3913    0.0606 C   0  0  0  0  0  0  0  0  0 11  0  0
   18.5110  -11.6896    0.0257 F   0  0  0  0  0  0  0  0  0 12  0  0
   25.9993   -6.3693   -0.1919 C   0  0  0  0  0  0  0  0  0 13  0  0
   27.3459   -6.3416   -0.1627 N   0  0  0  0  0  0  0  0  0 14  0  0
   28.1002   -5.0859   -0.3167 C   0  0  3  0  0  0  0  0  0 15  0  0
   29.5803   -5.2838   -0.1280 C   0  0  0  0  0  0  0  0  0 16  0  0
   30.3880   -4.1923    0.2044 O   0  0  0  0  0  0  0  0  0 17  0  0
   30.0789   -6.4059   -0.2671 O   0  0  0  0  0  0  0  0  0 18  0  0
   22.9482   -6.6744   -0.1183 C   0  0  0  0  0  0  0  0  0 19  0  0
   25.2848  -11.3780    0.1553 C   0  0  0  0  0  0  0  0  0 20  0  0
   25.3718   -5.3235   -0.3574 O   0  0  0  0  0  0  0  0  0 21  0  0
   27.5896   -3.8567    0.4889 C   0  0  0  0  0  0  0  0  0 22  0  0
   28.3017   -2.6814    0.0935 O   0  0  0  0  0  0  0  0  0 23  0  0
   31.7505   -4.6032    0.3308 C   0  0  0  0  0  0  0  0  0 24  0  0
  1  2  2  0
  2  3  1  0
  3  4  1  0
  4  5  2  0
  5  1  1  0
  3  6  1  0
  6  7  2  0
  7  8  1  0
  8  9  2  0
  9 10  1  0
 10 11  2  0
 11  6  1  0
  9 12  1  0
  1 13  1  0
 13 14  1  0
 14 15  1  0
 15 16  1  0
 16 17  1  0
 16 18  2  0
  2 19  1  0
  4 20  1  0
 13 21  2  0
 15 22  1  0
 22 23  1  0
 17 24  1  0
M  END
> <Name>
Molecule

> <OSM_ID>
OSM-S-61

> <Chemist_code>
PMY-57-1

$$$$
Molecule
  SciTegic10291209353D

 23 25  0  0  0  0            999 V2000
   26.9912   -7.0866    5.7388 C   0  0  0  0  0  0  0  0  0  1  0  0
   25.6838   -7.3497    5.7388 C   0  0  0  0  0  0  0  0  0  2  0  0
   25.5150   -8.7953    5.7389 N   0  0  0  0  0  0  0  0  0  3  0  0
   26.8732   -9.3304    5.7389 C   0  0  0  0  0  0  0  0  0  4  0  0
   27.7509   -8.3277    5.7389 C   0  0  0  0  0  0  0  0  0  5  0  0
   24.2217   -9.5699    5.7388 C   0  0  0  0  0  0  0  0  0  6  0  0
   23.0387   -8.9474    5.7385 C   0  0  0  0  0  0  0  0  0  7  0  0
   21.7769   -9.6850    5.7384 C   0  0  0  0  0  0  0  0  0  8  0  0
   21.7822  -11.0126    5.7386 C   0  0  0  0  0  0  0  0  0  9  0  0
   23.0492  -11.7267    5.7390 C   0  0  0  0  0  0  0  0  0 10  0  0
   24.1967  -11.0508    5.7390 C   0  0  0  0  0  0  0  0  0 11  0  0
   20.6256  -11.6897    5.7385 F   0  0  0  0  0  0  0  0  0 12  0  0
   27.6169   -5.7485    5.7387 C   0  0  0  0  0  0  0  0  0 13  0  0
   28.8739   -5.5557    5.7387 N   0  0  0  0  0  0  0  0  0 14  0  0
   29.0465   -4.1789    5.7386 C   0  0  0  0  0  0  0  0  0 15  0  0
   30.3321   -3.4938    5.7386 C   0  0  0  0  0  0  0  0  0 16  0  0
   30.3706   -2.1012    5.7385 O   0  0  0  0  0  0  0  0  0 17  0  0
   31.3815   -4.1474    5.7386 O   0  0  0  0  0  0  0  0  0 18  0  0
   24.6144   -6.2664    5.7388 C   0  0  0  0  0  0  0  0  0 19  0  0
   27.3260  -10.7747    5.7390 C   0  0  0  0  0  0  0  0  0 20  0  0
   26.9411   -4.5549    5.7386 O   0  0  0  0  0  0  0  0  0 21  0  0
   27.8688   -3.5681    5.7386 C   0  0  0  0  0  0  0  0  0 22  0  0
   31.7276   -1.6525    5.7385 C   0  0  0  0  0  0  0  0  0 23  0  0
  1  2  2  0
  2  3  1  0
  3  4  1  0
  4  5  2  0
  5  1  1  0
  3  6  1  0
  6  7  2  0
  7  8  1  0
  8  9  2  0
  9 10  1  0
 10 11  2  0
 11  6  1  0
  9 12  1  0
  1 13  1  0
 13 14  2  0
 14 15  1  0
 15 16  1  0
 16 17  1  0
 16 18  2  0
  2 19  1  0
  4 20  1  0
 15 22  2  0
 17 23  1  0
 22 21  1  0
 13 21  1  0
M  END
> <Name>
Molecule

> <OSM_ID>
OSM-S-62

> <Chemist_code>
PMY58-1-A

$$$$
Molecule
  SciTegic10291209353D

 23 25  0  0  0  0            999 V2000
   36.9959  -20.0934   -0.0399 C   0  0  0  0  0  0  0  0  0  1  0  0
   35.6900  -20.3654   -0.0041 C   0  0  0  0  0  0  0  0  0  2  0  0
   35.5308  -21.8117    0.0305 N   0  0  0  0  0  0  0  0  0  3  0  0
   36.8920  -22.3383    0.0225 C   0  0  0  0  0  0  0  0  0  4  0  0
   37.7635  -21.3306   -0.0207 C   0  0  0  0  0  0  0  0  0  5  0  0
   34.2411  -22.5942    0.0375 C   0  0  0  0  0  0  0  0  0  6  0  0
   33.0548  -21.9780    0.0342 C   0  0  0  0  0  0  0  0  0  7  0  0
   31.7968  -22.7210    0.0290 C   0  0  0  0  0  0  0  0  0  8  0  0
   31.8082  -24.0483    0.0251 C   0  0  0  0  0  0  0  0  0  9  0  0
   33.0789  -24.7566    0.0293 C   0  0  0  0  0  0  0  0  0 10  0  0
   34.2235  -24.0754    0.0358 C   0  0  0  0  0  0  0  0  0 11  0  0
   30.6545  -24.7305    0.0174 F   0  0  0  0  0  0  0  0  0 12  0  0
   37.6125  -18.7488   -0.1046 C   0  0  0  0  0  0  0  0  0 13  0  0
   38.8677  -18.5646   -0.1587 N   0  0  0  0  0  0  0  0  0 14  0  0
   39.0746  -17.1727   -0.2950 C   0  0  3  0  0  0  0  0  0 15  0  0
   40.3957  -16.5177   -0.0442 C   0  0  0  0  0  0  0  0  0 16  0  0
   40.4569  -15.1348    0.1203 O   0  0  0  0  0  0  0  0  0 17  0  0
   41.4264  -17.1986    0.0024 O   0  0  0  0  0  0  0  0  0 18  0  0
   34.6116  -19.2909   -0.0165 C   0  0  0  0  0  0  0  0  0 19  0  0
   37.3528  -23.7799    0.0523 C   0  0  0  0  0  0  0  0  0 20  0  0
   36.9051  -17.5628   -0.1137 O   0  0  0  0  0  0  0  0  0 21  0  0
   37.7669  -16.4594    0.0298 C   0  0  0  0  0  0  0  0  0 22  0  0
   41.8109  -14.7284    0.3306 C   0  0  0  0  0  0  0  0  0 23  0  0
  1  2  2  0
  2  3  1  0
  3  4  1  0
  4  5  2  0
  5  1  1  0
  3  6  1  0
  6  7  2  0
  7  8  1  0
  8  9  2  0
  9 10  1  0
 10 11  2  0
 11  6  1  0
  9 12  1  0
  1 13  1  0
 13 14  2  0
 14 15  1  0
 15 16  1  0
 16 17  1  0
 16 18  2  0
  2 19  1  0
  4 20  1  0
 15 22  1  0
 17 23  1  0
 22 21  1  0
 13 21  1  0
M  END
> <Name>
Molecule

> <OSM_ID>
OSM-S-63

$$$$
Molecule
  SciTegic10291209353D

 15 17  0  0  0  0            999 V2000
   20.5656   -7.8758   -0.0701 N   0  0  0  0  0  0  0  0  0  1  0  0
   19.2546   -7.2554   -0.1463 C   0  0  0  0  0  0  0  0  0  2  0  0
   19.2679   -5.7901    0.3346 C   0  0  0  0  0  0  0  0  0  3  0  0
   20.3488   -5.0818   -0.2625 O   0  0  0  0  0  0  0  0  0  4  0  0
   21.5476   -5.6143    0.2892 C   0  0  0  0  0  0  0  0  0  5  0  0
   21.7644   -7.0605   -0.1973 C   0  0  0  0  0  0  0  0  0  6  0  0
   19.3678  -11.2999    0.0197 C   0  0  0  0  0  0  0  0  0  7  0  0
   20.5617  -12.0641    0.0385 N   0  0  0  0  0  0  0  0  0  8  0  0
   21.6715  -11.4537    0.0224 C   0  0  0  0  0  0  0  0  0  9  0  0
   21.7283  -10.0437   -0.0142 C   0  0  0  0  0  0  0  0  0 10  0  0
   20.6150   -9.3049   -0.0334 C   0  0  0  0  0  0  0  0  0 11  0  0
   19.3936  -10.0178   -0.0134 N   0  0  0  0  0  0  0  0  0 12  0  0
   23.0387  -12.1013    0.0393 C   0  0  0  0  0  0  0  0  0 13  0  0
   24.0341  -11.1896    0.0169 C   0  0  0  0  0  0  0  0  0 14  0  0
   23.3422   -9.6316   -0.0225 S   0  0  0  0  0  0  0  0  0 15  0  0
  1  2  1  0
  2  3  1  0
  3  4  1  0
  4  5  1  0
  5  6  1  0
  1  6  1  0
  7  8  1  0
  8  9  2  0
  9 10  1  0
 10 11  2  0
 11 12  1  0
  7 12  2  0
 13 14  2  0
 14 15  1  0
  9 13  1  0
 10 15  1  0
  1 11  1  0
M  END
> <Name>
Molecule

> <OSM_ID>
OSM-S-64

> <Chemist_code>
JRC17-1

$$$$
Molecule
  SciTegic10291209353D

 11 12  0  0  0  0            999 V2000
   18.8282   -8.0647   -0.0020 O   0  0  0  0  0  0  0  0  0  1  0  0
   17.8202  -11.5322    0.0006 C   0  0  0  0  0  0  0  0  0  2  0  0
   19.0862  -12.1974    0.0013 N   0  0  0  0  0  0  0  0  0  3  0  0
   20.1384  -11.4899    0.0009 C   0  0  0  0  0  0  0  0  0  4  0  0
   20.0578  -10.0841   -0.0002 C   0  0  0  0  0  0  0  0  0  5  0  0
   18.8982   -9.4534   -0.0009 C   0  0  0  0  0  0  0  0  0  6  0  0
   17.7344  -10.2497   -0.0005 N   0  0  0  0  0  0  0  0  0  7  0  0
   21.5668  -11.9920    0.0015 C   0  0  0  0  0  0  0  0  0  8  0  0
   22.4291  -10.9552    0.0009 C   0  0  0  0  0  0  0  0  0  9  0  0
   21.5944   -9.4711   -0.0005 S   0  0  0  0  0  0  0  0  0 10  0  0
   24.4817  -11.1419    0.0014 I   0  0  0  0  0  0  0  0  0 11  0  0
  2  3  1  0
  3  4  2  0
  4  5  1  0
  5  6  2  0
  6  7  1  0
  2  7  2  0
  8  9  2  0
  9 10  1  0
  4  8  1  0
  5 10  1  0
  1  6  1  0
  9 11  1  0
M  END
> <Name>
Molecule

> <OSM_ID>
OSM-S-65

> <Chemist_code>
JRC20-3

$$$$
Molecule
  SciTegic10291209353D

 18 19  0  0  0  0            999 V2000
   13.3971   -5.0703   -0.0002 C   0  0  0  0  0  0  0  0  0  1  0  0
   13.2492   -6.3946   -0.0004 C   0  0  0  0  0  0  0  0  0  2  0  0
   14.4295   -7.2658   -0.0003 C   0  0  0  0  0  0  0  0  0  3  0  0
   15.6494   -6.7307    0.0000 C   0  0  0  0  0  0  0  0  0  4  0  0
   15.8107   -5.2737    0.0002 C   0  0  0  0  0  0  0  0  0  5  0  0
   14.7391   -4.4832    0.0001 C   0  0  0  0  0  0  0  0  0  6  0  0
   16.8649   -7.6117    0.0000 C   0  0  0  0  0  0  0  0  0  7  0  0
   18.3290   -6.5519    0.0003 S   0  0  0  0  0  0  0  0  0  8  0  0
   19.8100   -7.5222    0.0003 C   0  0  0  0  0  0  0  0  0  9  0  0
   19.8512   -8.7929    0.0002 N   0  0  0  0  0  0  0  0  0 10  0  0
   21.1414   -9.1259    0.0003 N   0  0  0  0  0  0  0  0  0 11  0  0
   21.9099   -7.9481    0.0004 C   0  0  0  0  0  0  0  0  0 12  0  0
   21.0937   -6.9761    0.0004 N   0  0  0  0  0  0  0  0  0 13  0  0
   21.5889  -10.5072    0.0002 C   0  0  0  0  0  0  0  0  0 14  0  0
   20.7053  -11.3722    0.0001 O   0  0  0  0  0  0  0  0  0 15  0  0
   22.9652  -10.9850    0.0003 N   0  0  0  0  0  0  0  0  0 16  0  0
   24.1384  -10.1388    0.0004 C   0  0  0  0  0  0  0  0  0 17  0  0
   23.1753  -12.4035    0.0002 C   0  0  0  0  0  0  0  0  0 18  0  0
  1  2  2  0
  2  3  1  0
  3  4  2  0
  4  5  1  0
  5  6  2  0
  6  1  1  0
  4  7  1  0
  7  8  1  0
  8  9  1  0
  9 10  2  0
 10 11  1  0
 11 12  1  0
 12 13  2  0
 13  9  1  0
 11 14  1  0
 14 15  2  0
 14 16  1  0
 16 17  1  0
 16 18  1  0
M  END
> <Name>
Molecule

> <OSM_ID>
OSM-S-67

> <Chemist_code>
JRC10-5

$$$$
Molecule
  SciTegic10291209353D

 23 24  0  0  0  0            999 V2000
   18.0751   -8.0462   -0.0159 C   0  0  0  0  0  0  0  0  0  1  0  0
   16.7422   -8.1867   -0.0034 C   0  0  0  0  0  0  0  0  0  2  0  0
   16.4396   -9.6113   -0.0427 N   0  0  0  0  0  0  0  0  0  3  0  0
   17.7389  -10.2720   -0.0826 C   0  0  0  0  0  0  0  0  0  4  0  0
   18.7091   -9.3576   -0.0677 C   0  0  0  0  0  0  0  0  0  5  0  0
   15.0740  -10.2589   -0.0323 C   0  0  0  0  0  0  0  0  0  6  0  0
   13.9578   -9.5251   -0.0060 C   0  0  0  0  0  0  0  0  0  7  0  0
   12.6299  -10.1313    0.0091 C   0  0  0  0  0  0  0  0  0  8  0  0
   12.5029  -11.4521   -0.0022 C   0  0  0  0  0  0  0  0  0  9  0  0
   13.6933  -12.2891   -0.0311 C   0  0  0  0  0  0  0  0  0 10  0  0
   14.9034  -11.7311   -0.0458 C   0  0  0  0  0  0  0  0  0 11  0  0
   11.2840  -12.0093    0.0130 F   0  0  0  0  0  0  0  0  0 12  0  0
   18.8361   -6.7654    0.0213 C   0  0  0  0  0  0  0  0  0 13  0  0
   20.2644   -6.8173   -0.0015 O   0  0  0  0  0  0  0  0  0 14  0  0
   20.9477   -5.5183    0.0533 C   0  0  0  0  0  0  0  0  0 15  0  0
   22.4289   -5.7236    0.0188 C   0  0  0  0  0  0  0  0  0 16  0  0
   23.2813   -4.6171    0.0099 N   0  0  0  0  0  0  0  0  0 17  0  0
   22.8965   -6.8668   -0.0033 O   0  0  0  0  0  0  0  0  0 18  0  0
   15.7677   -7.0147    0.0491 C   0  0  0  0  0  0  0  0  0 19  0  0
   18.0482  -11.7531   -0.1351 C   0  0  0  0  0  0  0  0  0 20  0  0
   18.2355   -5.6866    0.0767 O   0  0  0  0  0  0  0  0  0 21  0  0
   20.6342   -4.7403    1.3567 C   0  0  0  0  0  0  0  0  0 22  0  0
   20.5928   -4.5937   -1.1392 C   0  0  0  0  0  0  0  0  0 23  0  0
  1  2  2  0
  2  3  1  0
  3  4  1  0
  4  5  2  0
  5  1  1  0
  3  6  1  0
  6  7  2  0
  7  8  1  0
  8  9  2  0
  9 10  1  0
 10 11  2  0
 11  6  1  0
  9 12  1  0
  1 13  1  0
 13 14  1  0
 14 15  1  0
 15 16  1  0
 16 17  1  0
 16 18  2  0
  2 19  1  0
  4 20  1  0
 13 21  2  0
 15 22  1  0
 15 23  1  0
M  END
> <Name>
Molecule

> <OSM_ID>
OSM-S-68

> <Chemist_code>
MD5-1

$$$$
Molecule
  SciTegic10291209353D

 12 12  0  0  0  0            999 V2000
   18.1190  -10.8069   -0.0009 C   0  0  0  0  0  0  0  0  0  1  0  0
   19.5864  -11.2391   -0.0013 C   0  0  0  0  0  0  0  0  0  2  0  0
   20.4487  -10.2134   -0.0002 C   0  0  0  0  0  0  0  0  0  3  0  0
   19.5371   -8.8180    0.0012 S   0  0  0  0  0  0  0  0  0  4  0  0
   17.9965   -9.4512    0.0004 C   0  0  0  0  0  0  0  0  0  5  0  0
   17.1127  -11.8397   -0.0017 N   0  0  0  0  0  0  0  0  0  6  0  0
   16.8034   -8.5440    0.0008 C   0  0  0  0  0  0  0  0  0  7  0  0
   15.4982   -8.9976   -0.0015 O   0  0  0  0  0  0  0  0  0  8  0  0
   17.0023   -7.3235    0.0027 O   0  0  0  0  0  0  0  0  0  9  0  0
   14.5964   -7.8857   -0.0008 C   0  0  0  0  0  0  0  0  0 10  0  0
   15.7351  -11.6731    0.0026 C   0  0  0  0  0  0  0  0  0 11  0  0
   14.9927  -12.6611    0.0013 O   0  0  0  0  0  0  0  0  0 12  0  0
  1  2  1  0
  2  3  2  0
  3  4  1  0
  4  5  1  0
  5  1  2  0
  1  6  1  0
  5  7  1  0
  7  8  1  0
  7  9  2  0
  8 10  1  0
  6 11  1  0
 11 12  2  0
M  END
> <Name>
Molecule

> <OSM_ID>
OSM-S-69

> <Chemist_code>
JRC15-3

$$$$
Molecule
  SciTegic10291209353D

 10 11  0  0  0  0            999 V2000
   11.1813  -10.2524   -0.0005 N   0  0  0  0  0  0  0  0  0  1  0  0
   11.2423  -11.5360    0.0000 C   0  0  0  0  0  0  0  0  0  2  0  0
   12.4962  -12.2229    0.0005 N   0  0  0  0  0  0  0  0  0  3  0  0
   13.5607  -11.5336    0.0005 C   0  0  0  0  0  0  0  0  0  4  0  0
   13.5071  -10.1378    0.0000 C   0  0  0  0  0  0  0  0  0  5  0  0
   12.3615   -9.4818   -0.0005 C   0  0  0  0  0  0  0  0  0  6  0  0
   14.9785  -12.0596    0.0011 C   0  0  0  0  0  0  0  0  0  7  0  0
   15.8867  -11.0574    0.0010 C   0  0  0  0  0  0  0  0  0  8  0  0
   15.0518   -9.5631    0.0002 S   0  0  0  0  0  0  0  0  0  9  0  0
   12.3122   -7.7551   -0.0011 Cl  0  0  0  0  0  0  0  0  0 10  0  0
  1  2  2  0
  2  3  1  0
  3  4  2  0
  4  5  1  0
  5  6  2  0
  6  1  1  0
  4  7  1  0
  7  8  2  0
  8  9  1  0
  9  5  1  0
  6 10  1  0
M  END
> <Name>
Molecule

> <OSM_ID>
OSM-S-70

> <Chemist_code>
JRC13-3

$$$$
Molecule
  SciTegic10291209353D

 10 11  0  0  0  0            999 V2000
   11.1828  -10.2052   -0.0006 N   0  0  0  0  0  0  0  0  0  1  0  0
   11.2350  -11.4892    0.0000 C   0  0  0  0  0  0  0  0  0  2  0  0
   12.4843  -12.1845    0.0007 N   0  0  0  0  0  0  0  0  0  3  0  0
   13.5534  -11.5024    0.0006 C   0  0  0  0  0  0  0  0  0  4  0  0
   13.5093  -10.1062    0.0000 C   0  0  0  0  0  0  0  0  0  5  0  0
   12.3681   -9.4425   -0.0006 C   0  0  0  0  0  0  0  0  0  6  0  0
   14.9676  -12.0380    0.0013 C   0  0  0  0  0  0  0  0  0  7  0  0
   15.8825  -11.0420    0.0011 C   0  0  0  0  0  0  0  0  0  8  0  0
   15.0578   -9.5421    0.0002 S   0  0  0  0  0  0  0  0  0  9  0  0
   12.3375   -8.0474   -0.0013 N   0  0  0  0  0  0  0  0  0 10  0  0
  1  2  2  0
  2  3  1  0
  3  4  2  0
  4  5  1  0
  5  6  2  0
  6  1  1  0
  4  7  1  0
  7  8  2  0
  8  9  1  0
  9  5  1  0
  6 10  1  0
M  END
> <Name>
Molecule

> <OSM_ID>
OSM-S-71

> <Chemist_code>
JRC14-5

$$$$
Molecule
  SciTegic10291209353D

 13 14  0  0  0  0            999 V2000
   11.4623  -15.5590   -0.0002 C   0  0  0  0  0  0  0  0  0  1  0  0
   11.3854  -16.8890   -0.0002 C   0  0  0  0  0  0  0  0  0  2  0  0
   12.6099  -17.6936   -0.0001 C   0  0  0  0  0  0  0  0  0  3  0  0
   13.7997  -17.0949    0.0001 C   0  0  0  0  0  0  0  0  0  4  0  0
   13.8848  -15.6322    0.0002 C   0  0  0  0  0  0  0  0  0  5  0  0
   12.7718  -14.9006    0.0000 C   0  0  0  0  0  0  0  0  0  6  0  0
   15.0528  -17.9177    0.0002 C   0  0  0  0  0  0  0  0  0  7  0  0
   16.4904  -16.8210    0.0002 S   0  0  0  0  0  0  0  0  0  8  0  0
   17.9670  -17.7950    0.0003 C   0  0  0  0  0  0  0  0  0  9  0  0
   17.9895  -19.0639    0.0007 N   0  0  0  0  0  0  0  0  0 10  0  0
   19.2711  -19.4318    0.0006 N   0  0  0  0  0  0  0  0  0 11  0  0
   20.0503  -18.2645    0.0001 C   0  0  0  0  0  0  0  0  0 12  0  0
   19.2545  -17.2737   -0.0001 N   0  0  0  0  0  0  0  0  0 13  0  0
  1  2  2  0
  2  3  1  0
  3  4  2  0
  4  5  1  0
  5  6  2  0
  6  1  1  0
  4  7  1  0
  7  8  1  0
  8  9  1  0
  9 10  2  0
 10 11  1  0
 11 12  1  0
 12 13  2  0
 13  9  1  0
M  END
> <Name>
Molecule

> <OSM_ID>
OSM-S-66

> <Chemist_code>
JRC6-5

$$$$
Molecule
  SciTegic10291209353D

 19 20  0  0  0  0            999 V2000
   12.4845  -32.9606    0.0035 C   0  0  0  0  0  0  0  0  0  1  0  0
   13.8155  -32.9797    0.0024 C   0  0  0  0  0  0  0  0  0  2  0  0
   14.5723  -31.7230    0.0004 C   0  0  0  0  0  0  0  0  0  3  0  0
   13.9390  -30.5496   -0.0004 C   0  0  0  0  0  0  0  0  0  4  0  0
   12.4620  -30.5442    0.0007 C   0  0  0  0  0  0  0  0  0  5  0  0
   11.7765  -31.6848    0.0026 C   0  0  0  0  0  0  0  0  0  6  0  0
   14.7400  -29.3500   -0.0019 N   0  0  0  0  0  0  0  0  0  7  0  0
   16.0986  -29.3941   -0.0019 N   0  0  0  0  0  0  0  0  0  8  0  0
   16.5722  -28.2014   -0.0018 C   0  0  0  0  0  0  0  0  0  9  0  0
   15.4493  -27.2725   -0.0020 C   0  0  0  0  0  0  0  0  0 10  0  0
   14.3318  -27.9863   -0.0022 C   0  0  0  0  0  0  0  0  0 11  0  0
   15.5707  -25.7933   -0.0016 C   0  0  0  0  0  0  0  0  0 12  0  0
   14.5694  -25.0689   -0.0018 O   0  0  0  0  0  0  0  0  0 13  0  0
   16.8263  -25.1971   -0.0005 O   0  0  0  0  0  0  0  0  0 14  0  0
   16.6448  -23.7761    0.0003 C   0  0  0  0  0  0  0  0  0 15  0  0
   17.9695  -23.0796    0.0020 C   0  0  0  0  0  0  0  0  0 16  0  0
   19.0155  -23.7373    0.0020 O   0  0  0  0  0  0  0  0  0 17  0  0
   18.0196  -21.6837    0.0038 N   0  0  0  0  0  0  0  0  0 18  0  0
   12.9246  -27.4151   -0.0024 C   0  0  0  0  0  0  0  0  0 19  0  0
  1  2  2  0
  2  3  1  0
  3  4  2  0
  4  5  1  0
  5  6  2  0
  6  1  1  0
  4  7  1  0
  7  8  1  0
  8  9  2  0
  9 10  1  0
 10 11  2  0
 11  7  1  0
 10 12  1  0
 12 13  2  0
 12 14  1  0
 14 15  1  0
 15 16  1  0
 16 17  2  0
 16 18  1  0
 11 19  1  0
M  END
> <Name>
Molecule

> <OSM_ID>
OSM-S-57

> <Chemist_code>
PMY50-1

$$$$
Molecule
  SciTegic10291209353D

 14 15  0  0  0  0            999 V2000
   16.1835  -16.7719    0.0001 C   0  0  0  0  0  0  0  0  0  1  0  0
   16.1688  -18.1001   -0.0004 C   0  0  0  0  0  0  0  0  0  2  0  0
   17.4237  -18.8328   -0.0008 C   0  0  0  0  0  0  0  0  0  3  0  0
   18.5808  -18.1743   -0.0005 C   0  0  0  0  0  0  0  0  0  4  0  0
   18.6301  -16.6934    0.0000 C   0  0  0  0  0  0  0  0  0  5  0  0
   17.4579  -16.0509    0.0003 C   0  0  0  0  0  0  0  0  0  6  0  0
   19.9367  -15.9425    0.0003 N   0  0  0  0  0  0  0  0  0  7  0  0
   15.0024  -18.7611   -0.0006 F   0  0  0  0  0  0  0  0  0  8  0  0
   21.2760  -16.4964    0.0008 C   0  0  0  0  0  0  0  0  0  9  0  0
   22.1661  -15.5067    0.0010 C   0  0  0  0  0  0  0  0  0 10  0  0
   21.4389  -14.2362    0.0006 C   0  0  0  0  0  0  0  0  0 11  0  0
   20.1349  -14.5029    0.0002 C   0  0  0  0  0  0  0  0  0 12  0  0
   19.1017  -13.3910   -0.0004 C   0  0  0  0  0  0  0  0  0 13  0  0
   21.7090  -17.9471    0.0012 C   0  0  0  0  0  0  0  0  0 14  0  0
  1  2  2  0
  2  3  1  0
  3  4  2  0
  4  5  1  0
  5  6  2  0
  6  1  1  0
  5  7  1  0
  2  8  1  0
  7  9  1  0
  9 10  2  0
 10 11  1  0
 11 12  2  0
 12  7  1  0
 12 13  1  0
  9 14  1  0
M  END
> <Name>
Molecule

> <OSM_ID>
OSM-S-01

> <Chemist_code>
PMY1-1

$$$$
Molecule
  SciTegic10291209353D

 32 35  0  0  0  0            999 V2000
   17.6958  -40.6723   -0.1277 C   0  0  0  0  0  0  0  0  0  1  0  0
   17.6586  -42.0020   -0.0810 C   0  0  0  0  0  0  0  0  0  2  0  0
   18.8903  -42.7495    0.0308 C   0  0  0  0  0  0  0  0  0  3  0  0
   20.0510  -42.1069    0.0933 C   0  0  0  0  0  0  0  0  0  4  0  0
   20.1357  -40.6260    0.0500 C   0  0  0  0  0  0  0  0  0  5  0  0
   18.9838  -39.9602   -0.0614 C   0  0  0  0  0  0  0  0  0  6  0  0
   21.4658  -39.9216    0.1373 N   0  0  0  0  0  0  0  0  0  7  0  0
   16.4870  -42.6509   -0.1354 F   0  0  0  0  0  0  0  0  0  8  0  0
   22.7373  -40.5342    0.4172 C   0  0  0  0  0  0  0  0  0  9  0  0
   23.6752  -39.6098    0.4265 C   0  0  0  0  0  0  0  0  0 10  0  0
   23.0913  -38.3008    0.1282 C   0  0  0  0  0  0  0  0  0 11  0  0
   21.7612  -38.4813   -0.0313 C   0  0  0  0  0  0  0  0  0 12  0  0
   20.7799  -37.3669   -0.3554 C   0  0  0  0  0  0  0  0  0 13  0  0
   23.0817  -41.9819    0.7003 C   0  0  0  0  0  0  0  0  0 14  0  0
   23.8876  -36.9335    0.0335 C   0  0  0  0  0  0  0  0  0 15  0  0
   23.2319  -35.8897   -0.0314 O   0  0  0  0  0  0  0  0  0 16  0  0
   25.3874  -36.7833    0.1627 N   0  0  0  0  0  0  0  0  0 17  0  0
   25.9365  -35.4130    0.2734 C   0  0  0  0  0  0  0  0  0 18  0  0
   25.0940  -34.2564    0.2170 N   0  0  0  0  0  0  0  0  0 19  0  0
   27.1462  -35.2290    0.4225 O   0  0  0  0  0  0  0  0  0 20  0  0
   25.6398  -32.8826    0.3705 C   0  0  0  0  0  0  0  0  0 21  0  0
   26.9323  -32.6333   -0.4678 C   0  0  0  0  0  0  0  0  0 22  0  0
   27.4916  -31.2283   -0.1748 C   0  0  0  0  0  0  0  0  0 23  0  0
   26.4445  -30.1757   -0.5707 C   0  0  0  0  0  0  0  0  0 24  0  0
   25.1525  -30.4012    0.2464 C   0  0  0  0  0  0  0  0  0 25  0  0
   24.5839  -31.8226   -0.0182 C   0  0  0  0  0  0  0  0  0 26  0  0
   26.3044  -38.0063    0.1794 C   0  0  0  0  0  0  0  0  0 27  0  0
   26.3206  -38.6660   -1.2361 C   0  0  0  0  0  0  0  0  0 28  0  0
   27.0576  -40.0248   -1.1773 C   0  0  0  0  0  0  0  0  0 29  0  0
   28.5092  -39.8074   -0.7270 C   0  0  0  0  0  0  0  0  0 30  0  0
   28.5205  -39.1661    0.6723 C   0  0  0  0  0  0  0  0  0 31  0  0
   27.7808  -37.8128    0.6411 C   0  0  0  0  0  0  0  0  0 32  0  0
  1  2  2  0
  2  3  1  0
  3  4  2  0
  4  5  1  0
  5  6  2  0
  6  1  1  0
  5  7  1  0
  2  8  1  0
  7  9  1  0
  9 10  2  0
 10 11  1  0
 11 12  2  0
 12  7  1  0
 12 13  1  0
  9 14  1  0
 11 15  1  0
 15 16  2  0
 15 17  1  0
 18 19  1  0
 18 20  2  0
 19 21  1  0
 21 22  1  0
 22 23  1  0
 23 24  1  0
 24 25  1  0
 25 26  1  0
 26 21  1  0
 17 27  1  0
 27 28  1  0
 28 29  1  0
 29 30  1  0
 30 31  1  0
 31 32  1  0
 32 27  1  0
 17 18  1  0
M  END
> <Name>
Molecule

> <OSM_ID>
OSM-S-07

> <Chemist_code>
PMY12-1

> <IC50_nM_Assay01>
7800

$$$$
Molecule
  SciTegic10291209353D

 31 34  0  0  0  0            999 V2000
    9.8129  -24.2040   -0.0004 C   0  0  0  0  0  0  0  0  0  1  0  0
    9.8231  -25.5284   -0.0002 C   0  0  0  0  0  0  0  0  0  2  0  0
   11.0988  -26.2382    0.0000 C   0  0  0  0  0  0  0  0  0  3  0  0
   12.2473  -25.5587    0.0000 C   0  0  0  0  0  0  0  0  0  4  0  0
   12.2602  -24.0790   -0.0002 C   0  0  0  0  0  0  0  0  0  5  0  0
   11.0678  -23.4719   -0.0004 C   0  0  0  0  0  0  0  0  0  6  0  0
   13.5493  -23.2761   -0.0001 N   0  0  0  0  0  0  0  0  0  7  0  0
    8.6668  -26.2055   -0.0002 F   0  0  0  0  0  0  0  0  0  8  0  0
   14.9220  -23.7731    0.0005 C   0  0  0  0  0  0  0  0  0  9  0  0
   15.7798  -22.7441    0.0006 C   0  0  0  0  0  0  0  0  0 10  0  0
   14.9792  -21.5184    0.0000 C   0  0  0  0  0  0  0  0  0 11  0  0
   13.6749  -21.8348   -0.0004 C   0  0  0  0  0  0  0  0  0 12  0  0
   12.5407  -20.8012   -0.0010 C   0  0  0  0  0  0  0  0  0 13  0  0
   15.3975  -25.2094    0.0009 C   0  0  0  0  0  0  0  0  0 14  0  0
   15.5241  -20.1150   -0.0002 C   0  0  0  0  0  0  0  0  0 15  0  0
   14.7165  -19.2050   -0.0012 O   0  0  0  0  0  0  0  0  0 16  0  0
   16.8471  -19.8293    0.0007 N   0  0  0  0  0  0  0  0  0 17  0  0
   17.4827  -18.4636    0.0005 C   0  0  0  0  0  0  0  0  0 18  0  0
   18.9430  -18.2677    0.0005 C   0  0  0  0  0  0  0  0  0 19  0  0
   19.2143  -16.9449    0.0003 N   0  0  0  0  0  0  0  0  0 20  0  0
   17.9934  -16.2921    0.0003 N   0  0  0  0  0  0  0  0  0 21  0  0
   16.9646  -17.2069    0.0005 C   0  0  0  0  0  0  0  0  0 22  0  0
   19.7712  -19.1885    0.0006 O   0  0  0  0  0  0  0  0  0 23  0  0
   15.5398  -16.7056    0.0006 C   0  0  0  0  0  0  0  0  0 24  0  0
   17.7116  -14.8689   -0.0002 C   0  0  0  0  0  0  0  0  0 25  0  0
   20.5696  -16.3470    0.0001 C   0  0  0  0  0  0  0  0  0 26  0  0
   21.6453  -17.1365   -0.0003 C   0  0  0  0  0  0  0  0  0 27  0  0
   22.9997  -16.5613   -0.0005 C   0  0  0  0  0  0  0  0  0 28  0  0
   23.1751  -15.2417   -0.0004 C   0  0  0  0  0  0  0  0  0 29  0  0
   22.0213  -14.3616    0.0000 C   0  0  0  0  0  0  0  0  0 30  0  0
   20.7975  -14.8783    0.0002 C   0  0  0  0  0  0  0  0  0 31  0  0
  1  2  2  0
  2  3  1  0
  3  4  2  0
  4  5  1  0
  5  6  2  0
  6  1  1  0
  5  7  1  0
  2  8  1  0
  7  9  1  0
  9 10  2  0
 10 11  1  0
 11 12  2  0
 12  7  1  0
 12 13  1  0
  9 14  1  0
 11 15  1  0
 15 16  2  0
 15 17  1  0
 17 18  1  0
 18 19  1  0
 19 20  1  0
 20 21  1  0
 21 22  1  0
 22 18  2  0
 19 23  2  0
 22 24  1  0
 21 25  1  0
 20 26  1  0
 26 27  2  0
 27 28  1  0
 28 29  2  0
 29 30  1  0
 30 31  2  0
 31 26  1  0
M  END
> <Name>
Molecule

> <OSM_ID>
OSM-S-08

> <Chemist_code>
PMY12-5

> <IC50_nM_Assay01>
>100,000

$$$$
Molecule
  SciTegic10291209353D

 16 17  0  0  0  0            999 V2000
   13.0699  -31.3954   -0.0001 C   0  0  0  0  0  0  0  0  0  1  0  0
   13.0472  -32.7236    0.0003 C   0  0  0  0  0  0  0  0  0  2  0  0
   14.2977  -33.4641    0.0000 C   0  0  0  0  0  0  0  0  0  3  0  0
   15.4588  -32.8126   -0.0005 C   0  0  0  0  0  0  0  0  0  4  0  0
   15.5163  -31.3326   -0.0007 C   0  0  0  0  0  0  0  0  0  5  0  0
   14.3487  -30.6821   -0.0005 C   0  0  0  0  0  0  0  0  0  6  0  0
   16.8254  -30.5917   -0.0007 N   0  0  0  0  0  0  0  0  0  7  0  0
   11.8769  -33.3776    0.0008 F   0  0  0  0  0  0  0  0  0  8  0  0
   17.0347  -29.1404    0.0004 C   0  0  0  0  0  0  0  0  0  9  0  0
   18.3417  -28.8776    0.0009 C   0  0  0  0  0  0  0  0  0 10  0  0
   19.0326  -30.1558   -0.0001 C   0  0  0  0  0  0  0  0  0 11  0  0
   18.1597  -31.1557   -0.0012 C   0  0  0  0  0  0  0  0  0 12  0  0
   18.5925  -32.6083   -0.0025 C   0  0  0  0  0  0  0  0  0 13  0  0
   16.0061  -28.0254    0.0012 C   0  0  0  0  0  0  0  0  0 14  0  0
   20.5247  -30.3171    0.0002 C   0  0  0  0  0  0  0  0  0 15  0  0
   21.1406  -29.0277    0.0029 O   0  0  0  0  0  0  0  0  0 16  0  0
  1  2  2  0
  2  3  1  0
  3  4  2  0
  4  5  1  0
  5  6  2  0
  6  1  1  0
  5  7  1  0
  2  8  1  0
  7  9  1  0
  9 10  2  0
 10 11  1  0
 11 12  2  0
 12  7  1  0
 12 13  1  0
  9 14  1  0
 11 15  1  0
 15 16  1  0
M  END
> <Name>
Molecule

> <OSM_ID>
OSM-S-11

> <Chemist_code>
PMY18-3

$$$$
Molecule
  SciTegic10291209353D

 13 13  0  0  0  0            999 V2000
   19.7827  -17.9834    0.0001 C   0  0  0  0  0  0  0  0  0  1  0  0
   20.9471  -17.3434    0.0002 N   0  0  0  0  0  0  0  0  0  2  0  0
   22.1696  -18.0928    0.0003 C   0  0  0  0  0  0  0  0  0  3  0  0
   18.5324  -17.2312    0.0001 C   0  0  0  0  0  0  0  0  0  4  0  0
   19.7576  -19.2192    0.0000 O   0  0  0  0  0  0  0  0  0  5  0  0
   23.3364  -17.1515    0.0002 C   0  0  0  0  0  0  0  0  0  6  0  0
   24.6344  -17.6533    0.0003 O   0  0  0  0  0  0  0  0  0  7  0  0
   23.1450  -15.9303    0.0000 O   0  0  0  0  0  0  0  0  0  8  0  0
   17.3689  -17.8791    0.0000 C   0  0  0  0  0  0  0  0  0  9  0  0
   18.5570  -15.7666    0.0002 C   0  0  0  0  0  0  0  0  0 10  0  0
   17.4138  -15.0828    0.0002 C   0  0  0  0  0  0  0  0  0 11  0  0
   16.1328  -15.7958    0.0001 C   0  0  0  0  0  0  0  0  0 12  0  0
   16.1119  -17.1277    0.0000 C   0  0  0  0  0  0  0  0  0 13  0  0
  1  2  1  0
  2  3  1  0
  1  4  1  0
  1  5  2  0
  3  6  1  0
  6  7  1  0
  6  8  2  0
  4  9  2  0
  4 10  1  0
 10 11  2  0
 11 12  1  0
 12 13  2  0
 13  9  1  0
M  END
> <Name>
Molecule

> <OSM_ID>
OSM-S-15

> <Chemist_code>
PMY26-1

$$$$
Molecule
  SciTegic10291209353D

 26 27  0  0  0  0            999 V2000
   28.5224  -18.9275    0.3943 N   0  0  0  0  0  0  0  0  0  1  0  0
   29.6878  -19.7306    0.2620 C   0  0  0  0  0  0  0  0  0  2  0  0
   31.0263  -19.0406    0.0601 C   0  0  0  0  0  0  0  0  0  3  0  0
   31.2407  -17.7007    0.2241 N   0  0  0  0  0  0  0  0  0  4  0  0
   31.9325  -19.7932   -0.2697 O   0  0  0  0  0  0  0  0  0  5  0  0
   32.5643  -16.9645    0.1064 C   0  0  0  0  0  0  0  0  0  6  0  0
   33.8361  -17.4152    0.0714 C   0  0  0  0  0  0  0  0  0  7  0  0
   34.7088  -16.3423   -0.0049 N   0  0  0  0  0  0  0  0  0  8  0  0
   33.9993  -15.1456    0.0024 N   0  0  0  0  0  0  0  0  0  9  0  0
   32.6842  -15.4773    0.0578 C   0  0  0  0  0  0  0  0  0 10  0  0
   34.3868  -18.8178    0.1371 C   0  0  0  0  0  0  0  0  0 11  0  0
   36.1460  -16.5617   -0.0583 C   0  0  0  0  0  0  0  0  0 12  0  0
   34.5387  -13.7520   -0.0206 C   0  0  0  0  0  0  0  0  0 13  0  0
   31.7347  -14.6903    0.0865 O   0  0  0  0  0  0  0  0  0 14  0  0
   35.8555  -13.4974   -0.0360 C   0  0  0  0  0  0  0  0  0 15  0  0
   36.3823  -12.1368   -0.0384 C   0  0  0  0  0  0  0  0  0 16  0  0
   35.5463  -11.1063   -0.0213 C   0  0  0  0  0  0  0  0  0 17  0  0
   34.1035  -11.3493   -0.0036 C   0  0  0  0  0  0  0  0  0 18  0  0
   33.6257  -12.5962   -0.0037 C   0  0  0  0  0  0  0  0  0 19  0  0
   26.0752  -18.9024    0.1873 O   0  0  0  0  0  0  0  0  0 20  0  0
   24.8807  -19.6906   -0.1579 C   0  0  0  0  0  0  0  0  0 21  0  0
   25.0010  -20.2655   -1.5942 C   0  0  0  0  0  0  0  0  0 22  0  0
   24.6093  -20.8350    0.8536 C   0  0  0  0  0  0  0  0  0 23  0  0
   23.6703  -18.7434   -0.1373 C   0  0  0  0  0  0  0  0  0 24  0  0
   27.3080  -19.6142    0.1989 C   0  0  0  0  0  0  0  0  0 25  0  0
   27.3666  -20.8299   -0.0363 O   0  0  0  0  0  0  0  0  0 26  0  0
  1  2  1  0
  2  3  1  0
  3  4  1  0
  3  5  2  0
  4  6  1  0
  6  7  2  0
  7  8  1  0
  8  9  1  0
  9 10  1  0
 10  6  1  0
  7 11  1  0
  8 12  1  0
  9 13  1  0
 10 14  2  0
 13 15  2  0
 15 16  1  0
 16 17  2  0
 17 18  1  0
 18 19  2  0
 19 13  1  0
  1 25  1  0
 20 21  1  0
 21 22  1  0
 21 23  1  0
 21 24  1  0
 25 26  2  0
 20 25  1  0
M  END
> <Name>
Molecule

> <OSM_ID>
OSM-S-17

> <Chemist_code>
PMY29-1

$$$$
Molecule
  SciTegic10291209353D

 19 20  0  0  0  0            999 V2000
   29.1461  -17.9926    0.0033 N   0  0  0  0  0  0  0  0  0  1  0  0
   30.0074  -19.1785   -0.0012 C   0  0  0  0  0  0  0  0  0  2  0  0
   31.4523  -18.7651   -0.0023 C   0  0  0  0  0  0  0  0  0  3  0  0
   31.7602  -17.4467    0.0009 N   0  0  0  0  0  0  0  0  0  4  0  0
   32.3014  -19.6523   -0.0064 O   0  0  0  0  0  0  0  0  0  5  0  0
   33.0733  -16.7731    0.0009 C   0  0  0  0  0  0  0  0  0  6  0  0
   34.3336  -17.2337    0.0020 C   0  0  0  0  0  0  0  0  0  7  0  0
   35.2102  -16.1445    0.0016 N   0  0  0  0  0  0  0  0  0  8  0  0
   34.4769  -14.9575    0.0004 N   0  0  0  0  0  0  0  0  0  9  0  0
   33.1744  -15.3098    0.0000 C   0  0  0  0  0  0  0  0  0 10  0  0
   34.8490  -18.6501    0.0039 C   0  0  0  0  0  0  0  0  0 11  0  0
   36.6503  -16.3306    0.0029 C   0  0  0  0  0  0  0  0  0 12  0  0
   34.9613  -13.5547   -0.0002 C   0  0  0  0  0  0  0  0  0 13  0  0
   32.2079  -14.5469   -0.0011 O   0  0  0  0  0  0  0  0  0 14  0  0
   36.2651  -13.2454   -0.0007 C   0  0  0  0  0  0  0  0  0 15  0  0
   36.7215  -11.8565   -0.0012 C   0  0  0  0  0  0  0  0  0 16  0  0
   35.8366  -10.8657   -0.0010 C   0  0  0  0  0  0  0  0  0 17  0  0
   34.4093  -11.1732   -0.0004 C   0  0  0  0  0  0  0  0  0 18  0  0
   33.9953  -12.4403   -0.0001 C   0  0  0  0  0  0  0  0  0 19  0  0
  1  2  1  0
  2  3  1  0
  3  4  1  0
  3  5  2  0
  4  6  1  0
  6  7  2  0
  7  8  1  0
  8  9  1  0
  9 10  1  0
 10  6  1  0
  7 11  1  0
  8 12  1  0
  9 13  1  0
 10 14  2  0
 13 15  2  0
 15 16  1  0
 16 17  2  0
 17 18  1  0
 18 19  2  0
 19 13  1  0
M  END
> <Name>
Molecule

> <OSM_ID>
OSM-S-18

> <Chemist_code>
PMY30-3

$$$$
Molecule
  SciTegic10291209353D

 17 18  0  0  0  0            999 V2000
   26.7178  -39.1434    0.0003 C   0  0  0  0  0  0  0  0  0  1  0  0
   26.6779  -40.4711    0.0004 C   0  0  0  0  0  0  0  0  0  2  0  0
   27.9181  -41.2269    0.0000 C   0  0  0  0  0  0  0  0  0  3  0  0
   29.0872  -40.5904   -0.0004 C   0  0  0  0  0  0  0  0  0  4  0  0
   29.1660  -39.1105   -0.0004 C   0  0  0  0  0  0  0  0  0  5  0  0
   28.0059  -38.4463   -0.0001 C   0  0  0  0  0  0  0  0  0  6  0  0
   30.4879  -38.3823   -0.0004 N   0  0  0  0  0  0  0  0  0  7  0  0
   25.4995  -41.1104    0.0008 F   0  0  0  0  0  0  0  0  0  8  0  0
   30.7074  -36.9366    0.0004 C   0  0  0  0  0  0  0  0  0  9  0  0
   32.0142  -36.6832    0.0008 C   0  0  0  0  0  0  0  0  0 10  0  0
   32.7091  -37.9611    0.0001 C   0  0  0  0  0  0  0  0  0 11  0  0
   31.8227  -38.9629   -0.0008 C   0  0  0  0  0  0  0  0  0 12  0  0
   34.1908  -38.0671    0.0003 C   0  0  0  0  0  0  0  0  0 13  0  0
   34.7687  -39.1601   -0.0004 O   0  0  0  0  0  0  0  0  0 14  0  0
   35.1335  -36.6197    0.0019 Cl  0  0  0  0  0  0  0  0  0 15  0  0
   32.2088  -40.4331   -0.0017 C   0  0  0  0  0  0  0  0  0 16  0  0
   29.6886  -35.8119    0.0010 C   0  0  0  0  0  0  0  0  0 17  0  0
  1  2  2  0
  2  3  1  0
  3  4  2  0
  4  5  1  0
  5  6  2  0
  6  1  1  0
  5  7  1  0
  2  8  1  0
  7  9  1  0
  9 10  2  0
 10 11  1  0
 11 12  2  0
 12  7  1  0
 11 13  1  0
 13 14  2  0
 13 15  1  0
 12 16  1  0
  9 17  1  0
M  END
> <Name>
Molecule

> <OSM_ID>
OSM-S-20

> <Chemist_code>
PMY32-3

$$$$
Molecule
  SciTegic10291209353D

 35 38  0  0  0  0            999 V2000
   11.4612  -27.1678   -0.0001 C   0  0  0  0  0  0  0  0  0  1  0  0
   11.4546  -28.4950    0.0000 C   0  0  0  0  0  0  0  0  0  2  0  0
   12.7183  -29.2194    0.0001 C   0  0  0  0  0  0  0  0  0  3  0  0
   13.8735  -28.5527    0.0002 C   0  0  0  0  0  0  0  0  0  4  0  0
   13.9115  -27.0678    0.0002 C   0  0  0  0  0  0  0  0  0  5  0  0
   12.7307  -26.4397    0.0001 C   0  0  0  0  0  0  0  0  0  6  0  0
   15.2184  -26.2916    0.0003 N   0  0  0  0  0  0  0  0  0  7  0  0
   10.2899  -29.1623   -0.0001 F   0  0  0  0  0  0  0  0  0  8  0  0
   16.5741  -26.8286    0.0004 C   0  0  0  0  0  0  0  0  0  9  0  0
   17.4588  -25.8264    0.0003 C   0  0  0  0  0  0  0  0  0 10  0  0
   16.7043  -24.5713    0.0002 C   0  0  0  0  0  0  0  0  0 11  0  0
   15.3915  -24.8414    0.0001 C   0  0  0  0  0  0  0  0  0 12  0  0
   14.3112  -23.7679   -0.0001 C   0  0  0  0  0  0  0  0  0 13  0  0
   17.0144  -28.2780    0.0006 C   0  0  0  0  0  0  0  0  0 14  0  0
   17.3392  -23.1978    0.0000 C   0  0  0  0  0  0  0  0  0 15  0  0
   16.6462  -22.1752   -0.0002 O   0  0  0  0  0  0  0  0  0 16  0  0
   18.6663  -23.0494   -0.0001 N   0  0  0  0  0  0  0  0  0 17  0  0
   19.2314  -21.7006   -0.0004 C   0  0  0  0  0  0  0  0  0 18  0  0
   20.7372  -21.7706   -0.0002 C   0  0  0  0  0  0  0  0  0 19  0  0
   21.2454  -22.8883    0.0005 O   0  0  0  0  0  0  0  0  0 20  0  0
   21.4728  -20.6238   -0.0007 N   0  0  0  0  0  0  0  0  0 21  0  0
   22.9488  -20.4279   -0.0006 C   0  0  0  0  0  0  0  0  0 22  0  0
   23.9762  -21.3008   -0.0007 C   0  0  0  0  0  0  0  0  0 23  0  0
   25.1766  -20.5889   -0.0005 N   0  0  0  0  0  0  0  0  0 24  0  0
   24.9136  -19.2174   -0.0001 N   0  0  0  0  0  0  0  0  0 25  0  0
   23.5717  -19.0881   -0.0003 C   0  0  0  0  0  0  0  0  0 26  0  0
   23.9676  -22.8045   -0.0011 C   0  0  0  0  0  0  0  0  0 27  0  0
   26.4559  -21.2770   -0.0005 C   0  0  0  0  0  0  0  0  0 28  0  0
   25.8804  -18.0830    0.0003 C   0  0  0  0  0  0  0  0  0 29  0  0
   22.9393  -18.0244    0.0000 O   0  0  0  0  0  0  0  0  0 30  0  0
   27.2060  -18.2686    0.0006 C   0  0  0  0  0  0  0  0  0 31  0  0
   28.1417  -17.1451    0.0012 C   0  0  0  0  0  0  0  0  0 32  0  0
   27.6812  -15.8993    0.0015 C   0  0  0  0  0  0  0  0  0 33  0  0
   26.2392  -15.6638    0.0011 C   0  0  0  0  0  0  0  0  0 34  0  0
   25.3875  -16.6912    0.0006 C   0  0  0  0  0  0  0  0  0 35  0  0
  1  2  2  0
  2  3  1  0
  3  4  2  0
  4  5  1  0
  5  6  2  0
  6  1  1  0
  5  7  1  0
  2  8  1  0
  7  9  1  0
  9 10  2  0
 10 11  1  0
 11 12  2  0
 12  7  1  0
 12 13  1  0
  9 14  1  0
 11 15  1  0
 15 16  2  0
 15 17  1  0
 17 18  1  0
 18 19  1  0
 19 20  2  0
 19 21  1  0
 21 22  1  0
 22 23  2  0
 23 24  1  0
 24 25  1  0
 25 26  1  0
 26 22  1  0
 23 27  1  0
 24 28  1  0
 25 29  1  0
 26 30  2  0
 29 31  2  0
 31 32  1  0
 32 33  2  0
 33 34  1  0
 34 35  2  0
 35 29  1  0
M  END
> <Name>
Molecule

> <OSM_ID>
OSM-S-21

> <Chemist_code>
PMY34-1

> <IC50_nM_Assay01>
31000

$$$$
Molecule
  SciTegic10291209353D

 17 18  0  0  0  0            999 V2000
   12.1561  -34.7416   -0.0003 C   0  0  0  0  0  0  0  0  0  1  0  0
   12.1586  -36.0696    0.0003 C   0  0  0  0  0  0  0  0  0  2  0  0
   13.4232  -36.7858    0.0003 C   0  0  0  0  0  0  0  0  0  3  0  0
   14.5716  -36.1121   -0.0001 C   0  0  0  0  0  0  0  0  0  4  0  0
   14.6017  -34.6304   -0.0006 C   0  0  0  0  0  0  0  0  0  5  0  0
   13.4205  -34.0046   -0.0007 C   0  0  0  0  0  0  0  0  0  6  0  0
   15.9004  -33.8619   -0.0006 N   0  0  0  0  0  0  0  0  0  7  0  0
   11.0009  -36.7455    0.0008 F   0  0  0  0  0  0  0  0  0  8  0  0
   17.2529  -34.4079    0.0001 C   0  0  0  0  0  0  0  0  0  9  0  0
   18.1383  -33.4139    0.0008 C   0  0  0  0  0  0  0  0  0 10  0  0
   17.3952  -32.1634    0.0003 C   0  0  0  0  0  0  0  0  0 11  0  0
   16.0811  -32.4135   -0.0007 C   0  0  0  0  0  0  0  0  0 12  0  0
   15.0131  -31.3262   -0.0015 C   0  0  0  0  0  0  0  0  0 13  0  0
   17.6963  -35.8550    0.0004 C   0  0  0  0  0  0  0  0  0 14  0  0
   18.0614  -30.8359    0.0009 C   0  0  0  0  0  0  0  0  0 15  0  0
   17.4175  -29.7805    0.0004 O   0  0  0  0  0  0  0  0  0 16  0  0
   19.4556  -30.7792    0.0022 N   0  0  0  0  0  0  0  0  0 17  0  0
  1  2  2  0
  2  3  1  0
  3  4  2  0
  4  5  1  0
  5  6  2  0
  6  1  1  0
  5  7  1  0
  2  8  1  0
  7  9  1  0
  9 10  2  0
 10 11  1  0
 11 12  2  0
 12  7  1  0
 12 13  1  0
  9 14  1  0
 11 15  1  0
 15 16  2  0
 15 17  1  0
M  END
> <Name>
Molecule

> <OSM_ID>
OSM-S-22

> <Chemist_code>
PMY42-1

$$$$
Molecule
  SciTegic10291209353D

 17 18  0  0  0  0            999 V2000
   12.3116  -34.6922    0.0023 C   0  0  0  0  0  0  0  0  0  1  0  0
   12.3957  -36.0202    0.0020 C   0  0  0  0  0  0  0  0  0  2  0  0
   13.7065  -36.6646    0.0003 C   0  0  0  0  0  0  0  0  0  3  0  0
   14.8135  -35.9246   -0.0009 C   0  0  0  0  0  0  0  0  0  4  0  0
   14.7336  -34.4585   -0.0005 C   0  0  0  0  0  0  0  0  0  5  0  0
   13.5301  -33.8804    0.0011 C   0  0  0  0  0  0  0  0  0  6  0  0
   15.9734  -33.7264   -0.0015 N   0  0  0  0  0  0  0  0  0  7  0  0
   17.1524  -34.3692   -0.0020 N   0  0  0  0  0  0  0  0  0  8  0  0
   18.1075  -33.5211   -0.0017 C   0  0  0  0  0  0  0  0  0  9  0  0
   17.5392  -32.1559   -0.0011 C   0  0  0  0  0  0  0  0  0 10  0  0
   16.2147  -32.3133   -0.0011 C   0  0  0  0  0  0  0  0  0 11  0  0
   15.1884  -31.1875   -0.0006 C   0  0  0  0  0  0  0  0  0 12  0  0
   18.2926  -30.7906   -0.0005 C   0  0  0  0  0  0  0  0  0 13  0  0
   17.6201  -29.7544   -0.0009 O   0  0  0  0  0  0  0  0  0 14  0  0
   19.7334  -30.5771    0.0009 O   0  0  0  0  0  0  0  0  0 15  0  0
   20.6163  -31.7048    0.0020 C   0  0  0  0  0  0  0  0  0 16  0  0
   22.0750  -31.2161    0.0041 C   0  0  0  0  0  0  0  0  0 17  0  0
  1  2  2  0
  2  3  1  0
  3  4  2  0
  4  5  1  0
  5  6  2  0
  6  1  1  0
  5  7  1  0
  7  8  1  0
  8  9  2  0
  9 10  1  0
 10 11  2  0
 11  7  1  0
 11 12  1  0
 10 13  1  0
 13 14  2  0
 13 15  1  0
 15 16  1  0
 16 17  1  0
M  END
> <Name>
Molecule

> <OSM_ID>
OSM-S-23

> <Chemist_code>
PMY43-1

$$$$
Molecule
  SciTegic10291209353D

 15 16  0  0  0  0            999 V2000
   12.2366  -34.7597    0.0009 C   0  0  0  0  0  0  0  0  0  1  0  0
   12.3495  -36.0853    0.0016 C   0  0  0  0  0  0  0  0  0  2  0  0
   13.6747  -36.7013    0.0012 C   0  0  0  0  0  0  0  0  0  3  0  0
   14.7660  -35.9376    0.0001 C   0  0  0  0  0  0  0  0  0  4  0  0
   14.6534  -34.4735   -0.0005 C   0  0  0  0  0  0  0  0  0  5  0  0
   13.4369  -33.9225   -0.0002 C   0  0  0  0  0  0  0  0  0  6  0  0
   15.8720  -33.7065   -0.0011 N   0  0  0  0  0  0  0  0  0  7  0  0
   17.0872  -34.3093   -0.0005 N   0  0  0  0  0  0  0  0  0  8  0  0
   18.0126  -33.4224    0.0001 C   0  0  0  0  0  0  0  0  0  9  0  0
   17.3798  -32.1105   -0.0002 C   0  0  0  0  0  0  0  0  0 10  0  0
   16.0674  -32.2913   -0.0012 C   0  0  0  0  0  0  0  0  0 11  0  0
   15.0249  -31.1822   -0.0020 C   0  0  0  0  0  0  0  0  0 12  0  0
   18.1228  -30.8280    0.0005 C   0  0  0  0  0  0  0  0  0 13  0  0
   17.5353  -29.7399    0.0002 O   0  0  0  0  0  0  0  0  0 14  0  0
   19.5129  -30.8485    0.0020 O   0  0  0  0  0  0  0  0  0 15  0  0
  1  2  2  0
  2  3  1  0
  3  4  2  0
  4  5  1  0
  5  6  2  0
  6  1  1  0
  5  7  1  0
  7  8  1  0
  8  9  2  0
  9 10  1  0
 10 11  2  0
 11  7  1  0
 11 12  1  0
 10 13  1  0
 13 14  2  0
 13 15  1  0
M  END
> <Name>
Molecule

> <OSM_ID>
OSM-S-24

> <Chemist_code>
PMY44-1

$$$$
Molecule
  SciTegic10291209353D

 13 14  0  0  0  0            999 V2000
   12.1166  -34.8065    0.0006 C   0  0  0  0  0  0  0  0  0  1  0  0
   12.0978  -36.1349   -0.0003 C   0  0  0  0  0  0  0  0  0  2  0  0
   13.3528  -36.8690   -0.0011 C   0  0  0  0  0  0  0  0  0  3  0  0
   14.5113  -36.2127   -0.0009 C   0  0  0  0  0  0  0  0  0  4  0  0
   14.5636  -34.7322    0.0001 C   0  0  0  0  0  0  0  0  0  5  0  0
   13.3926  -34.0876    0.0007 C   0  0  0  0  0  0  0  0  0  6  0  0
   15.8717  -33.9838    0.0002 N   0  0  0  0  0  0  0  0  0  7  0  0
   17.2099  -34.5404    0.0003 C   0  0  0  0  0  0  0  0  0  8  0  0
   18.1019  -33.5523    0.0005 C   0  0  0  0  0  0  0  0  0  9  0  0
   17.3772  -32.2805    0.0005 C   0  0  0  0  0  0  0  0  0 10  0  0
   16.0726  -32.5446    0.0004 C   0  0  0  0  0  0  0  0  0 11  0  0
   15.0416  -31.4308    0.0003 C   0  0  0  0  0  0  0  0  0 12  0  0
   17.6399  -35.9919    0.0003 C   0  0  0  0  0  0  0  0  0 13  0  0
  1  2  2  0
  2  3  1  0
  3  4  2  0
  4  5  1  0
  5  6  2  0
  6  1  1  0
  5  7  1  0
  7  8  1  0
  8  9  2  0
  9 10  1  0
 10 11  2  0
 11  7  1  0
 11 12  1  0
  8 13  1  0
M  END
> <Name>
Molecule

> <OSM_ID>
OSM-S-25

> <Chemist_code>
LMW1-1

$$$$
Molecule
  SciTegic10291209353D

 14 15  0  0  0  0            999 V2000
   12.0686  -34.8455    0.0007 C   0  0  0  0  0  0  0  0  0  1  0  0
   12.0545  -36.1736   -0.0002 C   0  0  0  0  0  0  0  0  0  2  0  0
   13.3098  -36.9058   -0.0011 C   0  0  0  0  0  0  0  0  0  3  0  0
   14.4665  -36.2467   -0.0010 C   0  0  0  0  0  0  0  0  0  4  0  0
   14.5151  -34.7657    0.0001 C   0  0  0  0  0  0  0  0  0  5  0  0
   13.3426  -34.1238    0.0009 C   0  0  0  0  0  0  0  0  0  6  0  0
   15.8214  -34.0142    0.0002 N   0  0  0  0  0  0  0  0  0  7  0  0
   17.1609  -34.5675    0.0003 C   0  0  0  0  0  0  0  0  0  8  0  0
   18.0505  -33.5773    0.0005 C   0  0  0  0  0  0  0  0  0  9  0  0
   17.3228  -32.3073    0.0005 C   0  0  0  0  0  0  0  0  0 10  0  0
   16.0188  -32.5745    0.0003 C   0  0  0  0  0  0  0  0  0 11  0  0
   14.9851  -31.4631    0.0002 C   0  0  0  0  0  0  0  0  0 12  0  0
   17.5946  -36.0180    0.0004 C   0  0  0  0  0  0  0  0  0 13  0  0
   10.7493  -36.9142   -0.0003 C   0  0  0  0  0  0  0  0  0 14  0  0
  1  2  2  0
  2  3  1  0
  3  4  2  0
  4  5  1  0
  5  6  2  0
  6  1  1  0
  5  7  1  0
  7  8  1  0
  8  9  2  0
  9 10  1  0
 10 11  2  0
 11  7  1  0
 11 12  1  0
  8 13  1  0
  2 14  1  0
M  END
> <Name>
Molecule

> <OSM_ID>
OSM-S-26

> <Chemist_code>
LWM2-1

$$$$
Molecule
  SciTegic10291209353D

 17 18  0  0  0  0            999 V2000
   11.8348  -34.9821    0.0304 C   0  0  0  0  0  0  0  0  0  1  0  0
   11.8233  -36.3098    0.0353 C   0  0  0  0  0  0  0  0  0  2  0  0
   13.0777  -37.0406    0.0260 C   0  0  0  0  0  0  0  0  0  3  0  0
   14.2333  -36.3805    0.0132 C   0  0  0  0  0  0  0  0  0  4  0  0
   14.2797  -34.8997    0.0081 C   0  0  0  0  0  0  0  0  0  5  0  0
   13.1065  -34.2593    0.0165 C   0  0  0  0  0  0  0  0  0  6  0  0
   15.5845  -34.1465   -0.0054 N   0  0  0  0  0  0  0  0  0  7  0  0
   16.9248  -34.6979   -0.0137 C   0  0  0  0  0  0  0  0  0  8  0  0
   17.8130  -33.7065   -0.0240 C   0  0  0  0  0  0  0  0  0  9  0  0
   17.0833  -32.4374   -0.0232 C   0  0  0  0  0  0  0  0  0 10  0  0
   15.7799  -32.7065   -0.0123 C   0  0  0  0  0  0  0  0  0 11  0  0
   14.7446  -31.5965   -0.0087 C   0  0  0  0  0  0  0  0  0 12  0  0
   17.3606  -36.1478   -0.0115 C   0  0  0  0  0  0  0  0  0 13  0  0
   10.5225  -37.0503    0.0499 C   0  0  0  0  0  0  0  0  0 14  0  0
   10.1229  -37.2305   -1.2575 F   0  0  0  0  0  0  0  0  0 15  0  0
   10.6863  -38.2933    0.6248 F   0  0  0  0  0  0  0  0  0 16  0  0
    9.5559  -36.3017    0.6888 F   0  0  0  0  0  0  0  0  0 17  0  0
  1  2  2  0
  2  3  1  0
  3  4  2  0
  4  5  1  0
  5  6  2  0
  6  1  1  0
  5  7  1  0
  7  8  1  0
  8  9  2  0
  9 10  1  0
 10 11  2  0
 11  7  1  0
 11 12  1  0
  8 13  1  0
  2 14  1  0
 14 15  1  0
 14 16  1  0
 14 17  1  0
M  END
> <Name>
Molecule

> <OSM_ID>
OSM-S-27

> <Chemist_code>
LWM3-1

$$$$
Molecule
  DSViewer          3D                             0

 21 22  0  0  0  0  0  0  0  0999 V2000
   11.7475  -35.0705   -0.1407 C   0  0  0  0  0  0  0  0  0  1
   11.8214  -36.3966   -0.1373 C   0  0  0  0  0  0  0  0  0  2
   13.1007  -37.0509   -0.1297 C   0  0  0  0  0  0  0  0  0  3
   14.2204  -36.3378   -0.1147 C   0  0  0  0  0  0  0  0  0  4
   14.2051  -34.8636   -0.1131 C   0  0  0  0  0  0  0  0  0  5
   13.0047  -34.2704   -0.1282 C   0  0  0  0  0  0  0  0  0  6
   15.4935  -34.0796   -0.0681 N   0  0  0  0  0  0  0  0  0  7
   16.8490  -34.6031   -0.0071 C   0  0  0  0  0  0  0  0  0  8
   17.7125  -33.5924    0.0416 C   0  0  0  0  0  0  0  0  0  9
   16.9534  -32.3411    0.0125 C   0  0  0  0  0  0  0  0  0 10
   15.6563  -32.6400   -0.0519 C   0  0  0  0  0  0  0  0  0 11
   14.5964  -31.5591   -0.0957 C   0  0  0  0  0  0  0  0  0 12
   17.3227  -36.0443    0.0111 C   0  0  0  0  0  0  0  0  0 13
   10.3545  -34.4399   -0.0929 C   0  0  0  0  0  0  0  0  0 14
   13.1665  -38.5401   -0.1003 C   0  0  0  0  0  0  0  0  0 15
   10.2791  -35.1364    1.0989 F   0  0  0  0  0  0  0  0  0 16
    9.8130  -33.4387    0.6848 F   0  0  0  0  0  0  0  0  0 17
   11.0530  -33.3134   -0.4651 F   0  0  0  0  0  0  0  0  0 18
   12.0583  -39.0783   -0.7202 F   0  0  0  0  0  0  0  0  0 19
   13.1418  -38.9285    1.2228 F   0  0  0  0  0  0  0  0  0 20
   14.3481  -38.9816   -0.6557 F   0  0  0  0  0  0  0  0  0 21
  1  2  2  0  0  0
  2  3  1  0  0  0
  3  4  2  0  0  0
  4  5  1  0  0  0
  5  6  2  0  0  0
  6  1  1  0  0  0
  5  7  1  0  0  0
  7  8  1  0  0  0
  8  9  2  0  0  0
  9 10  1  0  0  0
 10 11  2  0  0  0
 11  7  1  0  0  0
 11 12  1  0  0  0
  8 13  1  0  0  0
  1 14  1  0  0  0
  3 15  1  0  0  0
 14 16  1  0  0  0
 14 17  1  0  0  0
 14 18  1  0  0  0
 15 19  1  0  0  0
 15 20  1  0  0  0
 15 21  1  0  0  0
M  END
> <OSM_ID>
OSM-S-33

> <Chemist_code>
ZYH1-1

$$$$
Molecule
  DSViewer          3D                             0

 19 20  0  0  0  0  0  0  0  0999 V2000
   11.9155  -34.8971    0.0252 C   0  0  0  0  0  0  0  0  0  1
   11.9143  -36.2244    0.0369 C   0  0  0  0  0  0  0  0  0  2
   13.1745  -36.9457    0.0254 C   0  0  0  0  0  0  0  0  0  3
   14.3248  -36.2763    0.0049 C   0  0  0  0  0  0  0  0  0  4
   14.3592  -34.7949   -0.0062 C   0  0  0  0  0  0  0  0  0  5
   13.1802  -34.1653    0.0033 C   0  0  0  0  0  0  0  0  0  6
   15.6588  -34.0300   -0.0224 N   0  0  0  0  0  0  0  0  0  7
   17.0099  -34.5791   -0.0321 C   0  0  0  0  0  0  0  0  0  8
   17.8975  -33.5870   -0.0373 C   0  0  0  0  0  0  0  0  0  9
   17.1566  -32.3349   -0.0319 C   0  0  0  0  0  0  0  0  0 10
   15.8426  -32.5822   -0.0244 C   0  0  0  0  0  0  0  0  0 11
   14.7781  -31.4912   -0.0178 C   0  0  0  0  0  0  0  0  0 12
   17.4499  -36.0274   -0.0358 C   0  0  0  0  0  0  0  0  0 13
   10.6191  -36.9727    0.0638 C   0  0  0  0  0  0  0  0  0 14
   10.7870  -38.1933    0.6834 F   0  0  0  0  0  0  0  0  0 15
   10.2365  -37.2054   -1.2402 F   0  0  0  0  0  0  0  0  0 16
    9.6406  -36.2100    0.6671 F   0  0  0  0  0  0  0  0  0 17
   17.8221  -31.0072   -0.0342 C   0  0  0  0  0  0  0  0  0 18
   17.1921  -29.9433   -0.0264 O   0  0  0  0  0  0  0  0  0 19
  1  2  2  0  0  0
  2  3  1  0  0  0
  3  4  2  0  0  0
  4  5  1  0  0  0
  5  6  2  0  0  0
  6  1  1  0  0  0
  5  7  1  0  0  0
  7  8  1  0  0  0
  8  9  2  0  0  0
  9 10  1  0  0  0
 10 11  2  0  0  0
 11  7  1  0  0  0
 11 12  1  0  0  0
  8 13  1  0  0  0
 14 15  1  0  0  0
 14 16  1  0  0  0
 14 17  1  0  0  0
  2 14  1  0  0  0
 10 18  1  0  0  0
 18 19  2  0  0  0
M  END
> <OSM_ID>
OSM-S-34

> <Chemist_code>
ZYH2-2

$$$$
Molecule
  DSViewer          3D                             0

 23 24  0  0  0  0  0  0  0  0999 V2000
   11.8944  -35.5839   -0.0844 C   0  0  0  0  0  0  0  0  0  1
   11.8751  -36.9124   -0.0901 C   0  0  0  0  0  0  0  0  0  2
   13.1297  -37.6424   -0.0451 C   0  0  0  0  0  0  0  0  0  3
   14.2862  -36.9850    0.0002 C   0  0  0  0  0  0  0  0  0  4
   14.3332  -35.5077    0.0064 C   0  0  0  0  0  0  0  0  0  5
   13.1646  -34.8692   -0.0351 C   0  0  0  0  0  0  0  0  0  6
   15.6385  -34.7575    0.0436 N   0  0  0  0  0  0  0  0  0  7
   16.9833  -35.3180    0.0618 C   0  0  0  0  0  0  0  0  0  8
   17.8789  -34.3339    0.0711 C   0  0  0  0  0  0  0  0  0  9
   17.1501  -33.0750    0.0625 C   0  0  0  0  0  0  0  0  0 10
   15.8315  -33.3109    0.0497 C   0  0  0  0  0  0  0  0  0 11
   14.7775  -32.2102    0.0418 C   0  0  0  0  0  0  0  0  0 12
   17.4102  -36.7711    0.0656 C   0  0  0  0  0  0  0  0  0 13
   10.6146  -34.8133   -0.1388 C   0  0  0  0  0  0  0  0  0 14
    9.9587  -35.1334   -1.3086 F   0  0  0  0  0  0  0  0  0 15
    9.7986  -35.2235    0.8936 F   0  0  0  0  0  0  0  0  0 16
   10.8590  -33.4564   -0.0730 F   0  0  0  0  0  0  0  0  0 17
   17.8246  -31.7529    0.0673 C   0  0  0  0  0  0  0  0  0 18
   17.2036  -30.6843    0.0512 O   0  0  0  0  0  0  0  0  0 19
   13.1279  -39.1383   -0.0570 C   0  0  0  0  0  0  0  0  0 20
   14.3383  -39.6160   -0.5160 F   0  0  0  0  0  0  0  0  0 21
   12.9474  -39.5745    1.2383 F   0  0  0  0  0  0  0  0  0 22
   12.0660  -39.6020   -0.8051 F   0  0  0  0  0  0  0  0  0 23
  1  2  2  0  0  0
  2  3  1  0  0  0
  3  4  2  0  0  0
  4  5  1  0  0  0
  5  6  2  0  0  0
  6  1  1  0  0  0
  5  7  1  0  0  0
  7  8  1  0  0  0
  8  9  2  0  0  0
  9 10  1  0  0  0
 10 11  2  0  0  0
 11  7  1  0  0  0
 11 12  1  0  0  0
  8 13  1  0  0  0
 14 15  1  0  0  0
 14 16  1  0  0  0
 14 17  1  0  0  0
 10 18  1  0  0  0
 18 19  2  0  0  0
 20 21  1  0  0  0
 20 22  1  0  0  0
 20 23  1  0  0  0
  1 14  1  0  0  0
  3 20  1  0  0  0
M  END
> <OSM_ID>
OSM-S-36

> <Chemist_code>
ZYH4-2

$$$$
Molecule
  DSViewer          3D                             0

 18 19  0  0  0  0  0  0  0  0999 V2000
   11.8223  -35.6489    0.0005 C   0  0  0  0  0  0  0  0  0  1
   11.8016  -36.9762   -0.0003 C   0  0  0  0  0  0  0  0  0  2
   13.0507  -37.7161   -0.0010 C   0  0  0  0  0  0  0  0  0  3
   14.2109  -37.0639   -0.0008 C   0  0  0  0  0  0  0  0  0  4
   14.2678  -35.5836    0.0001 C   0  0  0  0  0  0  0  0  0  5
   13.0991  -34.9347    0.0007 C   0  0  0  0  0  0  0  0  0  6
   15.5779  -34.8399    0.0002 N   0  0  0  0  0  0  0  0  0  7
   16.9141  -35.4015    0.0005 C   0  0  0  0  0  0  0  0  0  8
   17.8096  -34.4166    0.0006 C   0  0  0  0  0  0  0  0  0  9
   17.0894  -33.1422    0.0005 C   0  0  0  0  0  0  0  0  0 10
   15.7839  -33.4016    0.0003 C   0  0  0  0  0  0  0  0  0 11
   14.7568  -32.2839    0.0000 C   0  0  0  0  0  0  0  0  0 12
   17.3392  -36.8545    0.0007 C   0  0  0  0  0  0  0  0  0 13
   10.5299  -37.6885   -0.0004 C   0  0  0  0  0  0  0  0  0 14
    9.3369  -36.9728    0.0005 O   0  0  0  0  0  0  0  0  0 15
   10.5149  -38.9243   -0.0012 O   0  0  0  0  0  0  0  0  0 16
    8.2314  -37.8786    0.0003 C   0  0  0  0  0  0  0  0  0 17
    6.9165  -37.0796    0.0015 C   0  0  0  0  0  0  0  0  0 18
  1  2  2  0  0  0
  2  3  1  0  0  0
  3  4  2  0  0  0
  4  5  1  0  0  0
  5  6  2  0  0  0
  6  1  1  0  0  0
  5  7  1  0  0  0
  7  8  1  0  0  0
  8  9  2  0  0  0
  9 10  1  0  0  0
 10 11  2  0  0  0
 11  7  1  0  0  0
 11 12  1  0  0  0
  8 13  1  0  0  0
  2 14  1  0  0  0
 14 15  1  0  0  0
 14 16  2  0  0  0
 15 17  1  0  0  0
 17 18  1  0  0  0
M  END
> <OSM_ID>
OSM-S-40

> <Chemist_code>
ZYH8-1

$$$$
Molecule
  DSViewer          3D                             0

 13 14  0  0  0  0  0  0  0  0999 V2000
   12.1407  -35.5620    0.0004 C   0  0  0  0  0  0  0  0  0  1
   12.1962  -36.8869   -0.0003 C   0  0  0  0  0  0  0  0  0  2
   13.4987  -37.5360   -0.0008 C   0  0  0  0  0  0  0  0  0  3
   14.5700  -36.8455   -0.0006 N   0  0  0  0  0  0  0  0  0  4
   14.5630  -35.4285    0.0001 C   0  0  0  0  0  0  0  0  0  5
   13.3823  -34.8036    0.0006 C   0  0  0  0  0  0  0  0  0  6
   15.8413  -34.6903    0.0002 N   0  0  0  0  0  0  0  0  0  7
   17.1313  -35.2832    0.0002 C   0  0  0  0  0  0  0  0  0  8
   18.0645  -34.3337    0.0004 C   0  0  0  0  0  0  0  0  0  9
   17.3795  -33.0336    0.0005 C   0  0  0  0  0  0  0  0  0 10
   16.0677  -33.2643    0.0004 C   0  0  0  0  0  0  0  0  0 11
   15.0547  -32.1355    0.0005 C   0  0  0  0  0  0  0  0  0 12
   17.4596  -36.7539    0.0001 C   0  0  0  0  0  0  0  0  0 13
  1  2  2  0  0  0
  2  3  1  0  0  0
  3  4  2  0  0  0
  4  5  1  0  0  0
  5  6  2  0  0  0
  6  1  1  0  0  0
  5  7  1  0  0  0
  7  8  1  0  0  0
  8  9  2  0  0  0
  9 10  1  0  0  0
 10 11  2  0  0  0
 11  7  1  0  0  0
 11 12  1  0  0  0
  8 13  1  0  0  0
M  END
> <OSM_ID>
OSM-S-41

> <Chemist_code>
ZYH9-1

$$$$
Molecule
  DSViewer          3D                             0

 15 16  0  0  0  0  0  0  0  0999 V2000
   12.1857  -35.5087    0.0002 C   0  0  0  0  0  0  0  0  0  1
   12.2667  -36.8321    0.0001 C   0  0  0  0  0  0  0  0  0  2
   13.5815  -37.4557    0.0000 C   0  0  0  0  0  0  0  0  0  3
   14.6392  -36.7446   -0.0001 N   0  0  0  0  0  0  0  0  0  4
   14.6052  -35.3278   -0.0001 C   0  0  0  0  0  0  0  0  0  5
   13.4124  -34.7266    0.0000 C   0  0  0  0  0  0  0  0  0  6
   15.8712  -34.5656   -0.0001 N   0  0  0  0  0  0  0  0  0  7
   17.1786  -35.1442    0.0000 C   0  0  0  0  0  0  0  0  0  8
   18.1022  -34.1849    0.0002 C   0  0  0  0  0  0  0  0  0  9
   17.3916  -32.9095    0.0001 C   0  0  0  0  0  0  0  0  0 10
   16.0723  -33.1302   -0.0001 C   0  0  0  0  0  0  0  0  0 11
   15.0206  -32.0290   -0.0003 C   0  0  0  0  0  0  0  0  0 12
   17.5257  -36.6104    0.0001 C   0  0  0  0  0  0  0  0  0 13
   18.0846  -31.5973    0.0003 C   0  0  0  0  0  0  0  0  0 14
   17.4746  -30.5219    0.0004 O   0  0  0  0  0  0  0  0  0 15
  1  2  2  0  0  0
  2  3  1  0  0  0
  3  4  2  0  0  0
  4  5  1  0  0  0
  5  6  2  0  0  0
  6  1  1  0  0  0
  5  7  1  0  0  0
  7  8  1  0  0  0
  8  9  2  0  0  0
  9 10  1  0  0  0
 10 11  2  0  0  0
 11  7  1  0  0  0
 11 12  1  0  0  0
  8 13  1  0  0  0
 10 14  1  0  0  0
 14 15  2  0  0  0
M  END
> <OSM_ID>
OSM-S-44

> <Chemist_code>
ZYH11-1

$$$$
Molecule
  DSViewer          3D                             0

 20 21  0  0  0  0  0  0  0  0999 V2000
   11.8768  -35.5676   -0.0006 C   0  0  0  0  0  0  0  0  0  1
   11.8673  -36.8952   -0.0005 C   0  0  0  0  0  0  0  0  0  2
   13.1223  -37.6242   -0.0004 C   0  0  0  0  0  0  0  0  0  3
   14.2770  -36.9622   -0.0004 C   0  0  0  0  0  0  0  0  0  4
   14.3215  -35.4812   -0.0004 C   0  0  0  0  0  0  0  0  0  5
   13.1469  -34.8434   -0.0006 C   0  0  0  0  0  0  0  0  0  6
   15.6271  -34.7265   -0.0002 N   0  0  0  0  0  0  0  0  0  7
   16.9738  -35.2867    0.0004 C   0  0  0  0  0  0  0  0  0  8
   17.8693  -34.3018    0.0008 C   0  0  0  0  0  0  0  0  0  9
   17.1388  -33.0439    0.0005 C   0  0  0  0  0  0  0  0  0 10
   15.8225  -33.2804   -0.0001 C   0  0  0  0  0  0  0  0  0 11
   14.7669  -32.1810   -0.0007 C   0  0  0  0  0  0  0  0  0 12
   17.4025  -36.7385    0.0007 C   0  0  0  0  0  0  0  0  0 13
   17.8154  -31.7220    0.0008 C   0  0  0  0  0  0  0  0  0 14
   17.1945  -30.6529    0.0006 O   0  0  0  0  0  0  0  0  0 15
   10.6016  -37.6162   -0.0003 C   0  0  0  0  0  0  0  0  0 16
    9.4039  -36.9091   -0.0001 O   0  0  0  0  0  0  0  0  0 17
   10.5956  -38.8523   -0.0002 O   0  0  0  0  0  0  0  0  0 18
    8.3047  -37.8218    0.0002 C   0  0  0  0  0  0  0  0  0 19
    6.9849  -37.0311    0.0005 C   0  0  0  0  0  0  0  0  0 20
  1  2  2  0  0  0
  2  3  1  0  0  0
  3  4  2  0  0  0
  4  5  1  0  0  0
  5  6  2  0  0  0
  6  1  1  0  0  0
  5  7  1  0  0  0
  7  8  1  0  0  0
  8  9  2  0  0  0
  9 10  1  0  0  0
 10 11  2  0  0  0
 11  7  1  0  0  0
 11 12  1  0  0  0
  8 13  1  0  0  0
 10 14  1  0  0  0
 14 15  2  0  0  0
  2 16  1  0  0  0
 16 17  1  0  0  0
 16 18  2  0  0  0
 17 19  1  0  0  0
 19 20  1  0  0  0
M  END
> <OSM_ID>
OSM-S-46

> <Chemist_code>
ZYH13-1

$$$$
Molecule
  DSViewer          3D                             0

 19 21  0  0  0  0  0  0  0  0999 V2000
   27.7011  -21.6173   -0.0006 C   0  0  0  0  0  0  0  0  0  1
   27.2308  -23.0721   -0.0008 C   0  0  0  0  0  0  0  0  0  2
   28.8169  -24.0160   -0.0003 S   0  0  0  0  0  0  0  0  0  3
   29.9194  -22.5776    0.0000 C   0  0  0  0  0  0  0  0  0  4
   29.1394  -21.3732   -0.0001 N   0  0  0  0  0  0  0  0  0  5
   26.8643  -20.7072   -0.0007 O   0  0  0  0  0  0  0  0  0  6
   29.7079  -20.0302    0.0001 C   0  0  0  0  0  0  0  0  0  7
   31.2059  -22.6047    0.0001 N   0  0  0  0  0  0  0  0  0  8
   32.0847  -23.7572    0.0002 C   0  0  0  0  0  0  0  0  0  9
   31.0237  -19.8310    0.0008 C   0  0  0  0  0  0  0  0  0 10
   31.5778  -18.4707    0.0012 C   0  0  0  0  0  0  0  0  0 11
   30.7645  -17.4165    0.0007 C   0  0  0  0  0  0  0  0  0 12
   29.3211  -17.6157    0.0000 C   0  0  0  0  0  0  0  0  0 13
   28.8193  -18.8491   -0.0003 C   0  0  0  0  0  0  0  0  0 14
   31.6395  -25.0171    0.0013 C   0  0  0  0  0  0  0  0  0 15
   32.5709  -26.1458    0.0014 C   0  0  0  0  0  0  0  0  0 16
   33.8822  -25.9258    0.0003 C   0  0  0  0  0  0  0  0  0 17
   34.3865  -24.5532   -0.0010 C   0  0  0  0  0  0  0  0  0 18
   33.5359  -23.5269   -0.0010 C   0  0  0  0  0  0  0  0  0 19
  1  2  1  0  0  0
  2  3  1  0  0  0
  3  4  1  0  0  0
  4  5  1  0  0  0
  5  1  1  0  0  0
  1  6  2  0  0  0
  5  7  1  0  0  0
  4  8  2  0  0  0
  8  9  1  0  0  0
  7 10  2  0  0  0
 10 11  1  0  0  0
 11 12  2  0  0  0
 12 13  1  0  0  0
 13 14  2  0  0  0
 14  7  1  0  0  0
  9 15  2  0  0  0
 15 16  1  0  0  0
 16 17  2  0  0  0
 17 18  1  0  0  0
 18 19  2  0  0  0
 19  9  1  0  0  0
M  END
> <OSM_ID>
OSM-S-47

> <Chemist_code>
ZYH14-1

$$$$
Molecule
  DSViewer          3D                             0

 13 13  0  0  0  0  0  0  0  0999 V2000
   24.9258  -36.1119   -0.0001 C   0  0  0  0  0  0  0  0  0  1
   25.0468  -37.4380   -0.0004 C   0  0  0  0  0  0  0  0  0  2
   26.3766  -38.0552   -0.0003 C   0  0  0  0  0  0  0  0  0  3
   27.4715  -37.2957    0.0001 C   0  0  0  0  0  0  0  0  0  4
   27.3293  -35.8300    0.0004 C   0  0  0  0  0  0  0  0  0  5
   26.1214  -35.2702    0.0003 C   0  0  0  0  0  0  0  0  0  6
   28.7443  -37.9298    0.0001 N   0  0  0  0  0  0  0  0  0  7
   29.9846  -37.2401    0.0002 C   0  0  0  0  0  0  0  0  0  8
   31.1739  -37.9829    0.0002 N   0  0  0  0  0  0  0  0  0  9
   30.0379  -36.0053    0.0003 O   0  0  0  0  0  0  0  0  0 10
   32.3644  -37.3815    0.0003 C   0  0  0  0  0  0  0  0  0 11
   33.6160  -38.2086    0.0003 C   0  0  0  0  0  0  0  0  0 12
   32.4471  -36.1478    0.0003 O   0  0  0  0  0  0  0  0  0 13
  1  2  2  0  0  0
  2  3  1  0  0  0
  3  4  2  0  0  0
  4  5  1  0  0  0
  5  6  2  0  0  0
  6  1  1  0  0  0
  4  7  1  0  0  0
  7  8  1  0  0  0
  8  9  1  0  0  0
  8 10  2  0  0  0
  9 11  1  0  0  0
 11 12  1  0  0  0
 11 13  2  0  0  0
M  END
> <OSM_ID>
OSM-S-53

> <Chemist_code>
ZYH20-1

$$$$
Molecule
  SciTegic10291209353D

 25 28  0  0  0  0            999 V2000
    4.8636    3.0984   -1.0132 S   0  0  0  0  0  0  0  0  0  1  0  0
    2.5271    0.2938    0.1903 C   0  0  0  0  0  0  0  0  0  2  0  0
    3.6656    2.3907   -0.0024 N   0  0  0  0  0  0  0  0  0  3  0  0
    3.6541    0.9944    0.1149 C   0  0  0  0  0  0  0  0  0  4  0  0
    2.5965   -1.1176    0.2384 C   0  0  0  0  0  0  0  0  0  5  0  0
    1.0857    0.8063    0.1765 C   0  0  0  0  0  0  0  0  0  6  0  0
    1.0604   -1.7130    0.2531 S   0  0  0  0  0  0  0  0  0  7  0  0
    0.2248   -0.2377    0.1972 C   0  0  0  0  0  0  0  0  0  8  0  0
    3.6879   -1.7566    0.2239 N   0  0  0  0  0  0  0  0  0  9  0  0
    4.8725    0.2718    0.1017 N   0  0  0  0  0  0  0  0  0 10  0  0
    4.1601    4.0739   -1.9354 O   0  0  0  0  0  0  0  0  0 11  0  0
    5.4973    1.9811   -1.8189 O   0  0  0  0  0  0  0  0  0 12  0  0
    6.1554    3.9702   -0.1543 C   0  0  0  0  0  0  0  0  0 13  0  0
    4.8889   -1.0100    0.1616 C   0  0  0  0  0  0  0  0  0 14  0  0
   -1.2395   -0.1532    0.1543 C   0  0  0  0  0  0  0  0  0 15  0  0
    6.0449    5.4182    0.0592 C   0  0  0  0  0  0  0  0  0 16  0  0
    7.2718    3.3322    0.1967 C   0  0  0  0  0  0  0  0  0 17  0  0
   -1.8602    1.0255    0.1363 C   0  0  0  0  0  0  0  0  0 18  0  0
   -2.0232   -1.3935    0.1098 C   0  0  0  0  0  0  0  0  0 19  0  0
   -3.3524   -1.3466    0.0497 C   0  0  0  0  0  0  0  0  0 20  0  0
    7.0553    6.0924    0.6082 C   0  0  0  0  0  0  0  0  0 21  0  0
    8.3780    4.0728    0.8175 C   0  0  0  0  0  0  0  0  0 22  0  0
   -3.3287    1.0755    0.0783 C   0  0  0  0  0  0  0  0  0 23  0  0
   -4.0366   -0.0532    0.0346 C   0  0  0  0  0  0  0  0  0 24  0  0
    8.2774    5.3879    1.0061 C   0  0  0  0  0  0  0  0  0 25  0  0
  2  4  2  0
  3  1  1  0
  4  3  1  0
  5  2  1  0
  6  2  1  0
  7  5  1  0
  8  6  2  0
  9  5  2  0
 10  4  1  0
 11  1  2  0
 12  1  2  0
 13  1  1  0
 14 10  2  0
 15  8  1  0
 16 13  1  0
 17 13  2  0
 18 15  2  0
 19 15  1  0
 20 19  2  0
 21 16  2  0
 22 17  1  0
 23 18  1  0
 24 23  2  0
 25 22  2  0
 25 21  1  0
  9 14  1  0
  8  7  1  0
 24 20  1  0
M  END
> <Name>
Molecule

> <Mol Weight>
367.044921875

> <Mol Formula>
C18H13N3O2S2

> <MolPort Reference Number>
1

> <MolPort Id>
MolPort-004-175-448

> <Catalog No.>
Z31210525

> <Supplier>
ENAMINE Ltd.

> <OSM_ID>
OSM-S-72

$$$$
Molecule
  SciTegic10291209353D

 23 25  0  0  0  0            999 V2000
    1.3365    6.3824   -0.5402 S   0  0  0  0  0  0  0  0  0  1  0  0
    1.2509    4.6449   -0.1580 C   0  0  0  0  0  0  0  0  0  2  0  0
    3.8143    0.2299   -0.0159 C   0  0  0  0  0  0  0  0  0  3  0  0
    2.8881   -0.7365   -0.1295 C   0  0  0  0  0  0  0  0  0  4  0  0
    5.1454   -0.2356    0.1713 N   0  0  0  0  0  0  0  0  0  5  0  0
    1.9419    7.8752    0.1373 N   0  0  0  0  0  0  0  0  0  6  0  0
    3.6312    1.7005   -0.0808 N   0  0  0  0  0  0  0  0  0  7  0  0
    1.2452   -0.7036   -0.3920 S   0  0  0  0  0  0  0  0  0  8  0  0
    3.2271   -2.1098   -0.0332 C   0  0  0  0  0  0  0  0  0  9  0  0
    2.4828    3.8129   -0.2391 C   0  0  0  0  0  0  0  0  0 10  0  0
    1.1002    6.3068    0.9592 O   0  0  0  0  0  0  0  0  0 11  0  0
    2.6999    6.1492   -1.1571 O   0  0  0  0  0  0  0  0  0 12  0  0
    0.8853   -2.3594   -0.3521 C   0  0  0  0  0  0  0  0  0 13  0  0
    2.0349   -3.0351   -0.1551 C   0  0  0  0  0  0  0  0  0 14  0  0
    4.4256   -2.4776    0.1443 N   0  0  0  0  0  0  0  0  0 15  0  0
    5.4253   -1.4865    0.2425 C   0  0  0  0  0  0  0  0  0 16  0  0
    2.4291    2.5036    0.0332 C   0  0  0  0  0  0  0  0  0 17  0  0
    0.0870    4.0727    0.1718 C   0  0  0  0  0  0  0  0  0 18  0  0
    0.0558    2.6714    0.4992 C   0  0  0  0  0  0  0  0  0 19  0  0
    1.1632    1.9472    0.4482 C   0  0  0  0  0  0  0  0  0 20  0  0
    2.5224    8.7009   -0.9241 C   0  0  0  0  0  0  0  0  0 21  0  0
    0.8329    8.6203    0.7729 C   0  0  0  0  0  0  0  0  0 22  0  0
   -1.2094    4.8497    0.2082 C   0  0  0  0  0  0  0  0  0 23  0  0
  2  1  1  0
  3  7  1  0
  4  3  2  0
  5  3  1  0
  6  1  1  0
  7 17  1  0
  8  4  1  0
  9  4  1  0
 10  2  1  0
 11  1  2  0
 12  1  2  0
 13  8  1  0
 14  9  1  0
 15  9  2  0
 16  5  2  0
 17 10  2  0
 18  2  2  0
 19 18  1  0
 20 19  2  0
 21  6  1  0
 22  6  1  0
 23 18  1  0
 20 17  1  0
 15 16  1  0
 13 14  2  0
M  END
> <Name>
Molecule

> <Mol Weight>
348.071467156

> <Mol Formula>
C15H16N4O2S2

> <MolPort Reference Number>
2

> <MolPort Id>
MolPort-005-695-125

> <Catalog No.>
Z196131886

> <Supplier>
ENAMINE Ltd.

> <OSM_ID>
OSM-S-73

$$$$
Molecule
  SciTegic10291209353D

 29 32  0  0  0  0            999 V2000
    3.7463    8.0014    0.6487 S   0  0  0  0  0  0  0  0  0  1  0  0
    1.4518    0.6821   -0.0318 S   0  0  0  0  0  0  0  0  0  2  0  0
    2.9791    0.0386   -0.0346 C   0  0  0  0  0  0  0  0  0  3  0  0
    4.6757    6.4981    0.3877 C   0  0  0  0  0  0  0  0  0  4  0  0
    0.5877   -0.7847   -0.0022 C   0  0  0  0  0  0  0  0  0  5  0  0
    1.4299   -1.8403    0.0098 C   0  0  0  0  0  0  0  0  0  6  0  0
    2.8644   -1.3657   -0.0085 C   0  0  0  0  0  0  0  0  0  7  0  0
    4.0216    4.9665    0.2423 S   0  0  0  0  0  0  0  0  0  8  0  0
    4.1497    0.6414   -0.0576 C   0  0  0  0  0  0  0  0  0  9  0  0
    6.0106    6.4199    0.2847 C   0  0  0  0  0  0  0  0  0 10  0  0
    5.2965   -0.1820   -0.0539 N   0  0  0  0  0  0  0  0  0 11  0  0
    5.4475    4.1216    0.0440 C   0  0  0  0  0  0  0  0  0 12  0  0
    3.9030   -2.0977   -0.0052 N   0  0  0  0  0  0  0  0  0 13  0  0
    6.4797    4.9746    0.0749 C   0  0  0  0  0  0  0  0  0 14  0  0
    4.2630    2.0321   -0.0833 N   0  0  0  0  0  0  0  0  0 15  0  0
    2.9327    7.4322   -0.4971 O   0  0  0  0  0  0  0  0  0 16  0  0
    5.1545    8.5581    0.7469 O   0  0  0  0  0  0  0  0  0 17  0  0
   -0.8674   -0.8937    0.0036 C   0  0  0  0  0  0  0  0  0 18  0  0
    5.1812   -1.4620   -0.0286 C   0  0  0  0  0  0  0  0  0 19  0  0
    3.6038    9.4264   -0.3417 N   0  0  0  0  0  0  0  0  0 20  0  0
    5.5634    2.6346   -0.1288 C   0  0  0  0  0  0  0  0  0 21  0  0
   -1.6151    0.2102   -0.0107 C   0  0  0  0  0  0  0  0  0 22  0  0
   -1.5059   -2.2108    0.0201 C   0  0  0  0  0  0  0  0  0 23  0  0
   -3.6623   -1.0907    0.0033 C   0  0  0  0  0  0  0  0  0 24  0  0
   -2.8340   -2.3082    0.0196 C   0  0  0  0  0  0  0  0  0 25  0  0
   -3.0760    0.1052   -0.0102 C   0  0  0  0  0  0  0  0  0 26  0  0
   -5.0637   -1.1727    0.0010 O   0  0  0  0  0  0  0  0  0 27  0  0
    3.9083   10.6250    0.4508 C   0  0  0  0  0  0  0  0  0 28  0  0
   -5.5027   -2.5382    0.0150 C   0  0  0  0  0  0  0  0  0 29  0  0
  2  3  1  0
  3  9  2  0
  4  1  1  0
  5  2  1  0
  6  7  1  0
  7  3  1  0
  8  4  1  0
  9 15  1  0
 10  4  2  0
 11  9  1  0
 12  8  1  0
 13  7  2  0
 14 10  1  0
 15 21  1  0
 16  1  2  0
 17  1  2  0
 18  5  1  0
 19 11  2  0
 20  1  1  0
 21 12  1  0
 22 18  2  0
 23 18  1  0
 24 26  2  0
 25 23  2  0
 26 22  1  0
 27 24  1  0
 28 20  1  0
 29 27  1  0
 12 14  2  0
 13 19  1  0
  5  6  2  0
 24 25  1  0
M  END
> <Name>
Molecule

> <Mol Weight>
446.054102532

> <Mol Formula>
C19H18N4O3S3

> <MolPort Reference Number>
3

> <MolPort Id>
MolPort-005-522-375

> <Catalog No.>
Z217709300

> <Supplier>
ENAMINE Ltd.

> <OSM_ID>
OSM-S-74

$$$$
Molecule
  SciTegic10291209353D

 27 30  0  0  0  0            999 V2000
   -0.3995    4.1088    0.3382 S   0  0  0  0  0  0  0  0  0  1  0  0
    1.2611    4.1058    0.8476 N   0  0  0  0  0  0  0  0  0  2  0  0
    4.8384    0.1502   -0.1622 C   0  0  0  0  0  0  0  0  0  3  0  0
    3.8771   -0.7718   -0.2369 C   0  0  0  0  0  0  0  0  0  4  0  0
    6.1496   -0.3591    0.0466 N   0  0  0  0  0  0  0  0  0  5  0  0
   -1.5386    5.4583    0.3204 C   0  0  0  0  0  0  0  0  0  6  0  0
    2.2265   -0.6540   -0.4859 S   0  0  0  0  0  0  0  0  0  7  0  0
    4.6926    1.6276   -0.2680 N   0  0  0  0  0  0  0  0  0  8  0  0
    4.1408   -2.1594   -0.0814 C   0  0  0  0  0  0  0  0  0  9  0  0
   -0.3532    3.6100   -1.0912 O   0  0  0  0  0  0  0  0  0 10  0  0
   -1.0947    3.0518    1.1698 O   0  0  0  0  0  0  0  0  0 11  0  0
    1.7917   -2.3047   -0.3792 C   0  0  0  0  0  0  0  0  0 12  0  0
    2.9107   -3.0318   -0.1591 C   0  0  0  0  0  0  0  0  0 13  0  0
    5.3286   -2.5725    0.1209 N   0  0  0  0  0  0  0  0  0 14  0  0
    6.3700   -1.6192    0.1765 C   0  0  0  0  0  0  0  0  0 15  0  0
    2.1302    4.5773   -0.2833 C   0  0  0  0  0  0  0  0  0 16  0  0
    1.3277    2.6347    0.9451 C   0  0  0  0  0  0  0  0  0 17  0  0
    3.4227    2.3596   -0.2185 C   0  0  0  0  0  0  0  0  0 18  0  0
    2.6976    2.0460    1.0718 C   0  0  0  0  0  0  0  0  0 19  0  0
    3.5790    3.9280   -0.2313 C   0  0  0  0  0  0  0  0  0 20  0  0
   -2.7843    5.0419    0.5206 C   0  0  0  0  0  0  0  0  0 21  0  0
   -1.2878    6.8380   -0.1266 C   0  0  0  0  0  0  0  0  0 22  0  0
   -3.7373    7.1219   -0.1272 C   0  0  0  0  0  0  0  0  0 23  0  0
   -3.9119    5.8852    0.3125 C   0  0  0  0  0  0  0  0  0 24  0  0
   -2.3482    7.6388   -0.3361 C   0  0  0  0  0  0  0  0  0 25  0  0
   -4.8672    7.9108   -0.4244 O   0  0  0  0  0  0  0  0  0 26  0  0
   -6.0924    7.1589   -0.2168 C   0  0  0  0  0  0  0  0  0 27  0  0
  2  1  1  0
  3  8  1  0
  4  3  2  0
  5  3  1  0
  6  1  1  0
  7  4  1  0
  8 18  1  0
  9  4  1  0
 10  1  2  0
 11  1  2  0
 12  7  1  0
 13  9  1  0
 14  9  2  0
 15  5  2  0
 16  2  1  0
 17  2  1  0
 18 19  1  0
 19 17  1  0
 20 16  1  0
 21  6  2  0
 22  6  1  0
 23 24  2  0
 24 21  1  0
 25 22  2  0
 26 23  1  0
 27 26  1  0
 18 20  1  0
 25 23  1  0
 14 15  1  0
 12 13  2  0
M  END
> <Name>
Molecule

> <Mol Weight>
404.097681906

> <Mol Formula>
C18H20N4O3S2

> <MolPort Reference Number>
4

> <MolPort Id>
MolPort-009-449-876

> <Catalog No.>
Z229496652

> <Supplier>
ENAMINE Ltd.

> <OSM_ID>
OSM-S-75

$$$$
Molecule
  SciTegic10291209353D

 22 24  0  0  0  0            999 V2000
    6.7046    6.9296    0.0604 S   0  0  0  0  0  0  0  0  0  1  0  0
    2.9520    0.1877   -0.0674 C   0  0  0  0  0  0  0  0  0  2  0  0
    1.7855   -0.4298    0.0202 C   0  0  0  0  0  0  0  0  0  3  0  0
    3.0208    1.6119   -0.1275 N   0  0  0  0  0  0  0  0  0  4  0  0
    4.0954   -0.6456   -0.1148 N   0  0  0  0  0  0  0  0  0  5  0  0
    5.1992    6.0107   -0.0517 C   0  0  0  0  0  0  0  0  0  6  0  0
    0.2625    0.1957    0.0812 S   0  0  0  0  0  0  0  0  0  7  0  0
    1.6837   -1.8272    0.0638 C   0  0  0  0  0  0  0  0  0  8  0  0
    5.2607    4.5644   -0.1689 C   0  0  0  0  0  0  0  0  0  9  0  0
    7.3480    6.9784   -1.3125 O   0  0  0  0  0  0  0  0  0 10  0  0
    7.6557    6.2132    1.0003 O   0  0  0  0  0  0  0  0  0 11  0  0
   -0.6208   -1.2699    0.1611 C   0  0  0  0  0  0  0  0  0 12  0  0
    0.2516   -2.3024    0.1466 C   0  0  0  0  0  0  0  0  0 13  0  0
    2.7177   -2.5575    0.0248 N   0  0  0  0  0  0  0  0  0 14  0  0
    4.1460    3.8448   -0.2621 C   0  0  0  0  0  0  0  0  0 15  0  0
    4.2558    2.3525   -0.3887 C   0  0  0  0  0  0  0  0  0 16  0  0
    3.9880   -1.9238   -0.0671 C   0  0  0  0  0  0  0  0  0 17  0  0
    6.3887    8.5465    0.6140 N   0  0  0  0  0  0  0  0  0 18  0  0
    4.0192    6.6288   -0.0337 C   0  0  0  0  0  0  0  0  0 19  0  0
    2.8410    4.5123   -0.2455 C   0  0  0  0  0  0  0  0  0 20  0  0
    2.7809    5.8406   -0.1342 C   0  0  0  0  0  0  0  0  0 21  0  0
    5.5836    1.8052    0.1864 C   0  0  0  0  0  0  0  0  0 22  0  0
  2  4  1  0
  3  2  2  0
  4 16  1  0
  5  2  1  0
  6  1  1  0
  7  3  1  0
  8  3  1  0
  9  6  1  0
 10  1  2  0
 11  1  2  0
 12  7  1  0
 13  8  1  0
 14  8  2  0
 15  9  2  0
 16 15  1  0
 17  5  2  0
 18  1  1  0
 19  6  2  0
 20 15  1  0
 21 19  1  0
 22 16  1  0
 21 20  2  0
 14 17  1  0
 12 13  2  0
M  END
> <Name>
Molecule

> <Mol Weight>
334.055817092

> <Mol Formula>
C14H14N4O2S2

> <MolPort Reference Number>
5

> <MolPort Id>
MolPort-009-147-618

> <Catalog No.>
Z196139376

> <Supplier>
ENAMINE Ltd.

> <OSM_ID>
OSM-S-76

$$$$
Molecule
  SciTegic10291209353D

 25 27  0  0  0  0            999 V2000
   -0.6685    2.2093   -0.7095 S   0  0  0  0  0  0  0  0  0  1  0  0
    0.7119    3.3006   -0.2228 C   0  0  0  0  0  0  0  0  0  2  0  0
    4.4332    0.7277    0.1434 C   0  0  0  0  0  0  0  0  0  3  0  0
    3.4868   -0.2320    0.1908 C   0  0  0  0  0  0  0  0  0  4  0  0
    5.7530    0.2559   -0.0722 N   0  0  0  0  0  0  0  0  0  5  0  0
    1.9313    2.5375   -0.1312 C   0  0  0  0  0  0  0  0  0  6  0  0
   -1.4752    1.4886    0.6903 N   0  0  0  0  0  0  0  0  0  7  0  0
    4.2771    2.1915    0.3012 N   0  0  0  0  0  0  0  0  0  8  0  0
    1.8436   -0.1895    0.4480 S   0  0  0  0  0  0  0  0  0  9  0  0
    3.8105   -1.5993    0.0095 C   0  0  0  0  0  0  0  0  0 10  0  0
   -1.6669    2.8085   -1.6795 O   0  0  0  0  0  0  0  0  0 11  0  0
    0.0022    1.0370   -1.3990 O   0  0  0  0  0  0  0  0  0 12  0  0
    0.7709    4.6377    0.0545 C   0  0  0  0  0  0  0  0  0 13  0  0
    1.4625   -1.8358    0.3090 C   0  0  0  0  0  0  0  0  0 14  0  0
    2.6031   -2.5133    0.0743 C   0  0  0  0  0  0  0  0  0 15  0  0
    5.0016   -1.9714   -0.1882 N   0  0  0  0  0  0  0  0  0 16  0  0
    3.0996    3.0201    0.2292 C   0  0  0  0  0  0  0  0  0 17  0  0
    6.0161   -0.9902   -0.2235 C   0  0  0  0  0  0  0  0  0 18  0  0
    2.0970    5.1930    0.4425 C   0  0  0  0  0  0  0  0  0 19  0  0
    3.1884    4.4324    0.5269 C   0  0  0  0  0  0  0  0  0 20  0  0
   -0.2812    5.6262    0.0375 O   0  0  0  0  0  0  0  0  0 21  0  0
   -2.2565    0.3253    0.2603 C   0  0  0  0  0  0  0  0  0 22  0  0
   -2.3663    2.4232    1.3897 C   0  0  0  0  0  0  0  0  0 23  0  0
   -1.5782    5.2485   -0.3356 C   0  0  0  0  0  0  0  0  0 24  0  0
   -2.5403    6.4306   -0.1479 C   0  0  0  0  0  0  0  0  0 25  0  0
  2  1  1  0
  3  8  1  0
  4  3  2  0
  5  3  1  0
  6  2  1  0
  7  1  1  0
  8 17  1  0
  9  4  1  0
 10  4  1  0
 11  1  2  0
 12  1  2  0
 13  2  2  0
 14  9  1  0
 15 10  1  0
 16 10  2  0
 17  6  2  0
 18  5  2  0
 19 13  1  0
 20 19  2  0
 21 13  1  0
 22  7  1  0
 23  7  1  0
 24 21  1  0
 25 24  1  0
 17 20  1  0
 16 18  1  0
 14 15  2  0
M  END
> <Name>
Molecule

> <Mol Weight>
378.082031842

> <Mol Formula>
C16H18N4O3S2

> <MolPort Reference Number>
6

> <MolPort Id>
MolPort-003-316-814

> <Catalog No.>
Z196139364

> <Supplier>
ENAMINE Ltd.

> <OSM_ID>
OSM-S-77

$$$$
Molecule
  SciTegic10291209353D

 27 30  0  0  0  0            999 V2000
    2.4212   -9.3126   -0.1885 S   0  0  0  0  0  0  0  0  0  1  0  0
    0.1817    1.0067    0.0034 C   0  0  0  0  0  0  0  0  0  2  0  0
    0.2501   -0.2718    0.0341 N   0  0  0  0  0  0  0  0  0  3  0  0
    1.5063   -0.9530    0.0458 C   0  0  0  0  0  0  0  0  0  4  0  0
   -1.1024    1.7030   -0.0033 C   0  0  0  0  0  0  0  0  0  5  0  0
    1.3216    1.7814   -0.0225 N   0  0  0  0  0  0  0  0  0  6  0  0
    2.6291   -0.1793    0.0131 C   0  0  0  0  0  0  0  0  0  7  0  0
    2.4710    1.2607   -0.0204 C   0  0  0  0  0  0  0  0  0  8  0  0
    2.4108   -7.5519   -0.0652 C   0  0  0  0  0  0  0  0  0  9  0  0
    1.4538   -2.4470    0.0956 N   0  0  0  0  0  0  0  0  0 10  0  0
    1.2295   -9.7934   -0.9923 O   0  0  0  0  0  0  0  0  0 11  0  0
    3.7243   -9.7626   -0.8229 O   0  0  0  0  0  0  0  0  0 12  0  0
   -2.7984    3.4101   -0.0252 S   0  0  0  0  0  0  0  0  0 13  0  0
   -1.1732    3.0405   -0.0287 C   0  0  0  0  0  0  0  0  0 14  0  0
   -2.4487    1.0037    0.0191 C   0  0  0  0  0  0  0  0  0 15  0  0
    2.3359   -9.9760    1.4173 N   0  0  0  0  0  0  0  0  0 16  0  0
   -3.4704    1.8733    0.0087 C   0  0  0  0  0  0  0  0  0 17  0  0
    1.1506   -6.7800   -0.1415 C   0  0  0  0  0  0  0  0  0 18  0  0
    3.5652   -6.9236    0.1088 C   0  0  0  0  0  0  0  0  0 19  0  0
    2.6133   -3.2969    0.3162 C   0  0  0  0  0  0  0  0  0 20  0  0
    2.4701   -4.7750    0.1656 C   0  0  0  0  0  0  0  0  0 21  0  0
    3.5913   -5.4873    0.2296 C   0  0  0  0  0  0  0  0  0 22  0  0
    1.1790   -5.4468   -0.0329 C   0  0  0  0  0  0  0  0  0 23  0  0
    4.0332   -0.6690    0.0040 C   0  0  0  0  0  0  0  0  0 24  0  0
    3.6445    2.1268   -0.0472 C   0  0  0  0  0  0  0  0  0 25  0  0
    5.0690    0.1642   -0.0237 C   0  0  0  0  0  0  0  0  0 26  0  0
    4.8704    1.6092   -0.0476 C   0  0  0  0  0  0  0  0  0 27  0  0
  2  3  2  0
  3  4  1  0
  4 10  1  0
  5  2  1  0
  6  8  2  0
  7  4  2  0
  8  7  1  0
  9  1  1  0
 10 20  1  0
 11  1  2  0
 12  1  2  0
 13 14  1  0
 14  5  2  0
 15  5  1  0
 16  1  1  0
 17 15  2  0
 18  9  1  0
 19  9  2  0
 20 21  1  0
 21 22  2  0
 22 19  1  0
 23 18  2  0
 24  7  1  0
 25  8  1  0
 26 24  2  0
 27 25  2  0
 21 23  1  0
  6  2  1  0
 26 27  1  0
 13 17  1  0
M  END
> <Name>
Molecule

> <Mol Weight>
396.071467156

> <Mol Formula>
C19H16N4O2S2

> <MolPort Reference Number>
7

> <MolPort Id>
MolPort-009-231-093

> <Catalog No.>
Z86248675

> <Supplier>
ENAMINE Ltd.

> <OSM_ID>
OSM-S-78

$$$$
Molecule
  SciTegic10291209353D

 21 23  0  0  0  0            999 V2000
    0.0349    6.9867   -0.5688 S   0  0  0  0  0  0  0  0  0  1  0  0
    2.7395   -0.5651    0.0124 C   0  0  0  0  0  0  0  0  0  2  0  0
    3.7723    0.2816    0.0305 C   0  0  0  0  0  0  0  0  0  3  0  0
    1.4940    6.0046   -0.3388 C   0  0  0  0  0  0  0  0  0  4  0  0
    5.0599   -0.3019    0.0488 N   0  0  0  0  0  0  0  0  0  5  0  0
    1.0897   -0.3141   -0.0097 S   0  0  0  0  0  0  0  0  0  6  0  0
    2.9328   -1.9596    0.0101 C   0  0  0  0  0  0  0  0  0  7  0  0
    3.6595    1.7048    0.0300 N   0  0  0  0  0  0  0  0  0  8  0  0
    1.1060    8.0490   -0.4152 O   0  0  0  0  0  0  0  0  0  9  0  0
   -0.5062    5.8412    0.2654 O   0  0  0  0  0  0  0  0  0 10  0  0
    0.5540   -1.9289   -0.0234 C   0  0  0  0  0  0  0  0  0 11  0  0
    1.6347   -2.7385   -0.0116 C   0  0  0  0  0  0  0  0  0 12  0  0
    4.0985   -2.4570    0.0246 N   0  0  0  0  0  0  0  0  0 13  0  0
    5.2120   -1.5763    0.0451 C   0  0  0  0  0  0  0  0  0 14  0  0
   -0.7669    7.9750    0.6246 N   0  0  0  0  0  0  0  0  0 15  0  0
    1.3850    4.6818   -0.2834 C   0  0  0  0  0  0  0  0  0 16  0  0
    2.4008    2.3772   -0.0556 C   0  0  0  0  0  0  0  0  0 17  0  0
    2.5652    3.8550   -0.0953 C   0  0  0  0  0  0  0  0  0 18  0  0
    2.8148    6.6332   -0.1975 C   0  0  0  0  0  0  0  0  0 19  0  0
    3.8965    5.8752   -0.0210 C   0  0  0  0  0  0  0  0  0 20  0  0
    3.7668    4.4148    0.0285 C   0  0  0  0  0  0  0  0  0 21  0  0
  2  3  2  0
  3  8  1  0
  4  1  1  0
  5  3  1  0
  6  2  1  0
  7  2  1  0
  8 17  1  0
  9  1  2  0
 10  1  2  0
 11  6  1  0
 12  7  1  0
 13  7  2  0
 14  5  2  0
 15  1  1  0
 16  4  2  0
 17 18  1  0
 18 16  1  0
 19  4  1  0
 20 19  2  0
 21 18  2  0
 21 20  1  0
 13 14  1  0
 11 12  2  0
M  END
> <Name>
Molecule

> <Mol Weight>
320.040167028

> <Mol Formula>
C13H12N4O2S2

> <MolPort Reference Number>
8

> <MolPort Id>
MolPort-009-539-442

> <Catalog No.>
Z367550756

> <Supplier>
ENAMINE Ltd.

> <OSM_ID>
OSM-S-79

$$$$
Molecule
  SciTegic10291209353D

 33 37  0  0  0  0            999 V2000
   -0.5171   -5.5954   -0.7751 S   0  0  0  0  0  0  0  0  0  1  0  0
    3.1106   -0.1048    0.1095 C   0  0  0  0  0  0  0  0  0  2  0  0
    1.5215   -0.4778   -0.0218 S   0  0  0  0  0  0  0  0  0  3  0  0
    0.8362    0.9777   -0.0645 C   0  0  0  0  0  0  0  0  0  4  0  0
    4.3470   -0.9938    0.2285 C   0  0  0  0  0  0  0  0  0  5  0  0
    1.7925    1.9226   -0.0270 C   0  0  0  0  0  0  0  0  0  6  0  0
   -1.7125   -6.1867    0.3208 N   0  0  0  0  0  0  0  0  0  7  0  0
    3.1883    1.2178    0.0722 C   0  0  0  0  0  0  0  0  0  8  0  0
    5.4436   -0.3376    0.2603 N   0  0  0  0  0  0  0  0  0  9  0  0
    1.0034   -5.0011   -0.0881 C   0  0  0  0  0  0  0  0  0 10  0  0
   -0.2779   -6.6049   -1.8790 O   0  0  0  0  0  0  0  0  0 11  0  0
   -1.1436   -4.3447   -1.3613 O   0  0  0  0  0  0  0  0  0 12  0  0
    4.4211    1.8368    0.1343 N   0  0  0  0  0  0  0  0  0 13  0  0
    4.4574   -2.5284    0.2316 O   0  0  0  0  0  0  0  0  0 14  0  0
   -0.6163    1.0822   -0.0921 C   0  0  0  0  0  0  0  0  0 15  0  0
    5.4786    1.1147    0.2189 C   0  0  0  0  0  0  0  0  0 16  0  0
   -3.9729   -7.9295    0.5883 O   0  0  0  0  0  0  0  0  0 17  0  0
    0.9301   -3.7696    0.3628 C   0  0  0  0  0  0  0  0  0 18  0  0
    2.3333   -5.6150   -0.3159 C   0  0  0  0  0  0  0  0  0 19  0  0
   -1.3391    2.3509   -0.0858 C   0  0  0  0  0  0  0  0  0 20  0  0
   -1.2872   -0.0691   -0.0804 C   0  0  0  0  0  0  0  0  0 21  0  0
   -1.5328   -7.6430    0.4686 C   0  0  0  0  0  0  0  0  0 22  0  0
   -3.0089   -5.9309   -0.3337 C   0  0  0  0  0  0  0  0  0 23  0  0
    3.3046   -3.4407    0.2658 C   0  0  0  0  0  0  0  0  0 24  0  0
   -3.4130    1.0516   -0.0477 C   0  0  0  0  0  0  0  0  0 25  0  0
    2.1030   -3.0096    0.5575 C   0  0  0  0  0  0  0  0  0 26  0  0
    3.4402   -4.8714   -0.1263 C   0  0  0  0  0  0  0  0  0 27  0  0
   -2.7345   -0.0924   -0.0608 C   0  0  0  0  0  0  0  0  0 28  0  0
   -2.6767    2.3363   -0.0641 C   0  0  0  0  0  0  0  0  0 29  0  0
   -4.8214    1.0436   -0.0154 O   0  0  0  0  0  0  0  0  0 30  0  0
   -4.1509   -6.5109    0.5056 C   0  0  0  0  0  0  0  0  0 31  0  0
   -2.7291   -8.2343    1.2582 C   0  0  0  0  0  0  0  0  0 32  0  0
   -5.3402   -0.3024    0.0039 C   0  0  0  0  0  0  0  0  0 33  0  0
  2  5  1  0
  3  2  1  0
  4  3  1  0
  5 14  1  0
  6  8  1  0
  7  1  1  0
  8  2  2  0
  9  5  2  0
 10  1  1  0
 11  1  2  0
 12  1  2  0
 13  8  1  0
 14 24  1  0
 15  4  1  0
 16  9  1  0
 17 31  1  0
 18 10  2  0
 19 10  1  0
 20 15  1  0
 21 15  2  0
 22  7  1  0
 23  7  1  0
 24 26  2  0
 25 28  2  0
 26 18  1  0
 27 19  2  0
 28 21  1  0
 29 20  2  0
 30 25  1  0
 31 23  1  0
 32 22  1  0
 33 30  1  0
 17 32  1  0
 27 24  1  0
 16 13  2  0
  6  4  2  0
 29 25  1  0
M  END
> <Name>
Molecule

> <Mol Weight>
483.092262177

> <Mol Formula>
C23H21N3O5S2

> <MolPort Reference Number>
9

> <MolPort Id>
MolPort-005-561-851

> <Catalog No.>
Z127173570

> <Supplier>
ENAMINE Ltd.

> <OSM_ID>
OSM-S-80

$$$$
Molecule
  SciTegic10291209353D

 22 23  0  0  0  0            999 V2000
    5.4667   -5.6882    0.0007 C   0  0  0  0  0  0  0  0  0  1  0  0
    6.6852   -6.2333    0.0006 C   0  0  0  0  0  0  0  0  0  2  0  0
    7.6653   -5.1567    0.0004 N   0  0  0  0  0  0  0  0  0  3  0  0
    5.5740   -4.2334    0.0006 C   0  0  0  0  0  0  0  0  0  4  0  0
    6.8730   -3.9307    0.0005 C   0  0  0  0  0  0  0  0  0  5  0  0
    4.1656   -6.4122    0.0007 C   0  0  0  0  0  0  0  0  0  6  0  0
    0.6021   -5.6124   -0.0002 C   0  0  0  0  0  0  0  0  0  7  0  0
    3.0207   -5.7439    0.0004 N   0  0  0  0  0  0  0  0  0  8  0  0
    9.1707   -5.2802   -0.0003 C   0  0  0  0  0  0  0  0  0  9  0  0
   -0.6817   -6.1774    0.0001 N   0  0  0  0  0  0  0  0  0 10  0  0
    1.8051   -6.5044    0.0004 C   0  0  0  0  0  0  0  0  0 11  0  0
    4.1164   -7.6490    0.0010 O   0  0  0  0  0  0  0  0  0 12  0  0
    0.7398   -4.3840   -0.0009 O   0  0  0  0  0  0  0  0  0 13  0  0
    6.9378   -7.7385    0.0007 C   0  0  0  0  0  0  0  0  0 14  0  0
    7.3485   -2.4934    0.0004 C   0  0  0  0  0  0  0  0  0 15  0  0
   -1.8377   -5.3303   -0.0004 C   0  0  0  0  0  0  0  0  0 16  0  0
   -0.8435   -7.6078    0.0008 C   0  0  0  0  0  0  0  0  0 17  0  0
   10.0543   -4.0924   -0.0003 C   0  0  0  0  0  0  0  0  0 18  0  0
    9.7715   -6.4756   -0.0011 C   0  0  0  0  0  0  0  0  0 19  0  0
   11.2277   -6.6110   -0.0019 C   0  0  0  0  0  0  0  0  0 20  0  0
   11.3809   -4.2117   -0.0010 C   0  0  0  0  0  0  0  0  0 21  0  0
   11.9976   -5.5293   -0.0019 C   0  0  0  0  0  0  0  0  0 22  0  0
  2  1  2  0
  3  2  1  0
  4  1  1  0
  5  4  2  0
  6  1  1  0
  7 11  1  0
  8  6  1  0
  9  3  1  0
 10  7  1  0
 11  8  1  0
 12  6  2  0
 13  7  2  0
 14  2  1  0
 15  5  1  0
 16 10  1  0
 17 10  1  0
 18  9  1  0
 19  9  2  0
 20 19  1  0
 21 18  2  0
 22 20  2  0
  3  5  1  0
 22 21  1  0
M  END
> <Name>
Molecule

> <Mol Weight>
299.163376931

> <Mol Formula>
C17H21N3O2

> <MolPort Reference Number>
10

> <MolPort Id>
MolPort-009-131-728

> <Catalog No.>
Z102381252

> <Supplier>
ENAMINE Ltd.

> <OSM_ID>
OSM-S-81

$$$$
Molecule
  SciTegic10291209353D

 22 23  0  0  0  0            999 V2000
    5.1900   -5.6482    0.0008 C   0  0  0  0  0  0  0  0  0  1  0  0
    6.3943   -6.2289    0.0009 C   0  0  0  0  0  0  0  0  0  2  0  0
    7.4020   -5.1758    0.0010 N   0  0  0  0  0  0  0  0  0  3  0  0
    5.3376   -4.1995    0.0011 C   0  0  0  0  0  0  0  0  0  4  0  0
    6.6425   -3.9302    0.0012 C   0  0  0  0  0  0  0  0  0  5  0  0
    3.8691   -6.3283    0.0005 C   0  0  0  0  0  0  0  0  0  6  0  0
    8.9028   -5.3373    0.0004 C   0  0  0  0  0  0  0  0  0  7  0  0
    0.3098   -5.6771   -0.0007 C   0  0  0  0  0  0  0  0  0  8  0  0
    2.7066   -5.5686    0.0002 O   0  0  0  0  0  0  0  0  0  9  0  0
    3.7737   -7.5612    0.0002 O   0  0  0  0  0  0  0  0  0 10  0  0
    0.3382   -4.4414   -0.0004 O   0  0  0  0  0  0  0  0  0 11  0  0
    9.8156   -4.1704    0.0000 C   0  0  0  0  0  0  0  0  0 12  0  0
    9.4726   -6.5467    0.0000 C   0  0  0  0  0  0  0  0  0 13  0  0
    1.5861   -6.4565   -0.0004 C   0  0  0  0  0  0  0  0  0 14  0  0
   -0.8545   -6.3198   -0.0012 N   0  0  0  0  0  0  0  0  0 15  0  0
    6.6042   -7.7394    0.0006 C   0  0  0  0  0  0  0  0  0 16  0  0
   11.7199   -5.6556   -0.0012 C   0  0  0  0  0  0  0  0  0 17  0  0
    7.1531   -2.5053    0.0016 C   0  0  0  0  0  0  0  0  0 18  0  0
   10.9242   -6.7182   -0.0009 C   0  0  0  0  0  0  0  0  0 19  0  0
   11.1388   -4.3224   -0.0008 C   0  0  0  0  0  0  0  0  0 20  0  0
   13.0511   -5.8121   -0.0021 F   0  0  0  0  0  0  0  0  0 21  0  0
   -2.0838   -5.5826   -0.0014 C   0  0  0  0  0  0  0  0  0 22  0  0
  2  1  2  0
  3  2  1  0
  4  1  1  0
  5  4  2  0
  6  1  1  0
  7  3  1  0
  8 14  1  0
  9  6  1  0
 10  6  2  0
 11  8  2  0
 12  7  1  0
 13  7  2  0
 14  9  1  0
 15  8  1  0
 16  2  1  0
 17 19  2  0
 18  5  1  0
 19 13  1  0
 20 12  2  0
 21 17  1  0
 22 15  1  0
  3  5  1  0
 17 20  1  0
M  END
> <Name>
Molecule

> <Mol Weight>
304.122

> <Mol Formula>
C16H17FN2O3

> <MolPort Reference Number>
11

> <MolPort Id>
MolPort-004-025-267

> <Catalog No.>
Z18964039

> <Supplier>
ENAMINE Ltd.

> <Box No.>
1

> <Box Row>
A

> <Box Column>
11

> <Quantity>
5.0mg

> <OSM number>
OSM-S-82

> <OSM_ID>
OSM-S-82

$$$$
Molecule
  SciTegic10291209353D

 22 24  0  0  0  0            999 V2000
    1.1951   -2.5497   -0.0158 C   0  0  0  0  0  0  0  0  0  1  0  0
   -0.1485   -2.6157    0.0267 C   0  0  0  0  0  0  0  0  0  2  0  0
   -0.6844   -1.2547   -0.0090 N   0  0  0  0  0  0  0  0  0  3  0  0
    2.1635   -3.7660    0.0035 C   0  0  0  0  0  0  0  0  0  4  0  0
    1.5803   -1.1324   -0.0757 C   0  0  0  0  0  0  0  0  0  5  0  0
    0.4815   -0.3916   -0.0682 C   0  0  0  0  0  0  0  0  0  6  0  0
    3.6160   -3.7035   -0.0836 N   0  0  0  0  0  0  0  0  0  7  0  0
    5.8358   -4.8189   -0.0522 C   0  0  0  0  0  0  0  0  0  8  0  0
    4.3255   -4.9682   -0.0370 C   0  0  0  0  0  0  0  0  0  9  0  0
    6.4294   -3.6549    0.2053 N   0  0  0  0  0  0  0  0  0 10  0  0
   -2.1342   -0.8293    0.0027 C   0  0  0  0  0  0  0  0  0 11  0  0
    1.6941   -4.9023    0.1253 O   0  0  0  0  0  0  0  0  0 12  0  0
    6.5365   -5.8107   -0.2808 O   0  0  0  0  0  0  0  0  0 13  0  0
   -0.9340   -3.9159    0.0964 C   0  0  0  0  0  0  0  0  0 14  0  0
    4.3638   -2.4807   -0.2791 C   0  0  0  0  0  0  0  0  0 15  0  0
    0.5617    1.1232   -0.1206 C   0  0  0  0  0  0  0  0  0 16  0  0
    5.6725   -2.4885    0.5089 C   0  0  0  0  0  0  0  0  0 17  0  0
   -3.2434   -1.8105    0.0343 C   0  0  0  0  0  0  0  0  0 18  0  0
   -2.4768    0.4628   -0.0204 C   0  0  0  0  0  0  0  0  0 19  0  0
   -3.8746    0.8936   -0.0140 C   0  0  0  0  0  0  0  0  0 20  0  0
   -4.5172   -1.4222    0.0389 C   0  0  0  0  0  0  0  0  0 21  0  0
   -4.8500   -0.0070    0.0137 C   0  0  0  0  0  0  0  0  0 22  0  0
  2  1  2  0
  3  2  1  0
  4  1  1  0
  5  1  1  0
  6  5  2  0
  7  4  1  0
  8  9  1  0
  9  7  1  0
 10  8  1  0
 11  3  1  0
 12  4  2  0
 13  8  2  0
 14  2  1  0
 15  7  1  0
 16  6  1  0
 17 15  1  0
 18 11  1  0
 19 11  2  0
 20 19  1  0
 21 18  2  0
 22 20  2  0
  3  6  1  0
 10 17  1  0
 22 21  1  0
M  END
> <Name>
Molecule

> <Mol Weight>
297.148

> <Mol Formula>
C17H19N3O2

> <MolPort Reference Number>
12

> <MolPort Id>
n/a

> <Catalog No.>
Z31603451

> <Supplier>
ENAMINE Ltd.

> <Box No.>
1

> <Box Row>
A

> <Box Column>
12

> <Quantity>
5.0mg

> <OSM number>
OSM-S-83

> <OSM_ID>
OSM-S-83

$$$$
Molecule
  SciTegic10291209353D

 23 24  0  0  0  0            999 V2000
    5.3235   -5.5548    0.0006 C   0  0  0  0  0  0  0  0  0  1  0  0
    6.5125   -6.1802    0.0007 C   0  0  0  0  0  0  0  0  0  2  0  0
    7.5761   -5.1649    0.0007 N   0  0  0  0  0  0  0  0  0  3  0  0
    5.5746   -4.1065    0.0006 C   0  0  0  0  0  0  0  0  0  4  0  0
    3.9195   -6.2383    0.0004 C   0  0  0  0  0  0  0  0  0  5  0  0
    6.8806   -3.8960    0.0007 C   0  0  0  0  0  0  0  0  0  6  0  0
    2.6242   -5.5467   -0.0007 N   0  0  0  0  0  0  0  0  0  7  0  0
    9.0703   -5.3749    0.0002 C   0  0  0  0  0  0  0  0  0  8  0  0
    0.0080   -5.7428    0.0000 C   0  0  0  0  0  0  0  0  0  9  0  0
    1.4148   -6.4066   -0.0006 C   0  0  0  0  0  0  0  0  0 10  0  0
    3.8603   -7.4752    0.0014 O   0  0  0  0  0  0  0  0  0 11  0  0
   -0.1743   -4.5197    0.0015 O   0  0  0  0  0  0  0  0  0 12  0  0
   10.0106   -4.2308   -0.0001 C   0  0  0  0  0  0  0  0  0 13  0  0
    9.6123   -6.5980    0.0000 C   0  0  0  0  0  0  0  0  0 14  0  0
   -1.0655   -6.5238   -0.0009 N   0  0  0  0  0  0  0  0  0 15  0  0
    6.6795   -7.6966    0.0007 C   0  0  0  0  0  0  0  0  0 16  0  0
   11.8830   -5.7417   -0.0009 C   0  0  0  0  0  0  0  0  0 17  0  0
    7.4373   -2.4881    0.0009 C   0  0  0  0  0  0  0  0  0 18  0  0
   11.0678   -6.7917   -0.0006 C   0  0  0  0  0  0  0  0  0 19  0  0
   11.3283   -4.4037   -0.0007 C   0  0  0  0  0  0  0  0  0 20  0  0
   13.7673   -5.9869   -0.0018 Br  0  0  0  0  0  0  0  0  0 21  0  0
    2.5041   -4.1060   -0.0024 C   0  0  0  0  0  0  0  0  0 22  0  0
   -2.3730   -5.9290   -0.0003 C   0  0  0  0  0  0  0  0  0 23  0  0
  2  1  2  0
  3  2  1  0
  4  1  1  0
  5  1  1  0
  6  4  2  0
  7  5  1  0
  8  3  1  0
  9 10  1  0
 10  7  1  0
 11  5  2  0
 12  9  2  0
 13  8  1  0
 14  8  2  0
 15  9  1  0
 16  2  1  0
 17 19  2  0
 18  6  1  0
 19 14  1  0
 20 13  2  0
 21 17  1  0
 22  7  1  0
 23 15  1  0
  3  6  1  0
 17 20  1  0
M  END
> <Name>
Molecule

> <Mol Weight>
377.074

> <Mol Formula>
C17H20BrN3O2

> <MolPort Reference Number>
13

> <MolPort Id>
MolPort-019-648-967

> <Catalog No.>
Z322133338

> <Supplier>
ENAMINE Ltd.

> <OSM_ID>
OSM-S-84

$$$$
Molecule
  SciTegic10291209353D

 31 34  0  0  0  0            999 V2000
    0.1828   -6.0720    0.0001 C   0  0  0  0  0  0  0  0  0  1  0  0
   -1.1489   -6.0866    0.0000 C   0  0  0  0  0  0  0  0  0  2  0  0
    1.0383   -4.8728    0.0000 C   0  0  0  0  0  0  0  0  0  3  0  0
   -1.5846   -7.4723    0.0001 N   0  0  0  0  0  0  0  0  0  4  0  0
    0.7003   -7.4324    0.0002 C   0  0  0  0  0  0  0  0  0  5  0  0
   -0.3500   -8.2531    0.0003 C   0  0  0  0  0  0  0  0  0  6  0  0
    0.6008   -3.6023    0.0000 O   0  0  0  0  0  0  0  0  0  7  0  0
    2.3097   -4.8960    0.0000 N   0  0  0  0  0  0  0  0  0  8  0  0
    1.7079   -2.8686    0.0000 C   0  0  0  0  0  0  0  0  0  9  0  0
    2.7376   -3.6170    0.0000 N   0  0  0  0  0  0  0  0  0 10  0  0
    3.6691    0.8650    0.0004 C   0  0  0  0  0  0  0  0  0 11  0  0
    4.8810    1.4919    0.0003 N   0  0  0  0  0  0  0  0  0 12  0  0
   -2.9995   -7.9886    0.0001 C   0  0  0  0  0  0  0  0  0 13  0  0
    1.7493   -1.1040    0.0001 S   0  0  0  0  0  0  0  0  0 14  0  0
    6.2410    0.9399    0.0001 C   0  0  0  0  0  0  0  0  0 15  0  0
    7.3600    1.8933   -0.0002 C   0  0  0  0  0  0  0  0  0 16  0  0
    2.6549    1.5724    0.0005 O   0  0  0  0  0  0  0  0  0 17  0  0
    3.4798   -0.6363    0.0002 C   0  0  0  0  0  0  0  0  0 18  0  0
   -1.9973   -4.8213   -0.0001 C   0  0  0  0  0  0  0  0  0 19  0  0
    8.6222    1.4628   -0.0004 C   0  0  0  0  0  0  0  0  0 20  0  0
   -0.1764   -9.7567    0.0004 C   0  0  0  0  0  0  0  0  0 21  0  0
    9.6707    2.3921   -0.0007 O   0  0  0  0  0  0  0  0  0 22  0  0
    7.9016   -0.8459    0.0001 C   0  0  0  0  0  0  0  0  0 23  0  0
    6.5271   -0.3672    0.0003 C   0  0  0  0  0  0  0  0  0 24  0  0
   -4.0443   -7.1543   -0.0005 C   0  0  0  0  0  0  0  0  0 25  0  0
   -3.3028   -9.4365    0.0006 C   0  0  0  0  0  0  0  0  0 26  0  0
    8.9043    0.0242   -0.0002 C   0  0  0  0  0  0  0  0  0 27  0  0
   10.9438    1.7281   -0.0009 C   0  0  0  0  0  0  0  0  0 28  0  0
   -4.5571   -9.8837    0.0005 C   0  0  0  0  0  0  0  0  0 29  0  0
   -5.4226   -7.6404   -0.0006 C   0  0  0  0  0  0  0  0  0 30  0  0
   -5.6686   -8.9452   -0.0001 C   0  0  0  0  0  0  0  0  0 31  0  0
  2  1  2  0
  3  1  1  0
  4  2  1  0
  5  1  1  0
  6  5  2  0
  7  3  1  0
  8  3  2  0
  9  7  1  0
 10  8  1  0
 11 18  1  0
 12 11  1  0
 13  4  1  0
 14  9  1  0
 15 12  1  0
 16 15  1  0
 17 11  2  0
 18 14  1  0
 19  2  1  0
 20 16  2  0
 21  6  1  0
 22 20  1  0
 23 24  1  0
 24 15  2  0
 25 13  2  0
 26 13  1  0
 27 20  1  0
 28 22  1  0
 29 26  2  0
 30 25  1  0
 31 30  2  0
  4  6  1  0
 10  9  2  0
 31 29  1  0
 23 27  2  0
M  END
> <Name>
Molecule

> <Mol Weight>
434.141

> <Mol Formula>
C23H22N4O3S

> <MolPort Reference Number>
14

> <MolPort Id>
MolPort-004-258-884

> <Catalog No.>
Z56895831

> <Supplier>
ENAMINE Ltd.

> <Box No.>
1

> <Box Row>
B

> <Box Column>
1

> <Quantity>
5.1mg

> <OSM number>
OSM-S-85

> <OSM_ID>
OSM-S-85

$$$$
Molecule
  SciTegic10291209353D

 31 33  0  0  0  0            999 V2000
    6.3705   -5.6478   -0.0393 C   0  0  0  0  0  0  0  0  0  1  0  0
    7.5481   -6.3136    0.0272 C   0  0  0  0  0  0  0  0  0  2  0  0
    8.6368   -5.3197   -0.0174 N   0  0  0  0  0  0  0  0  0  3  0  0
    6.6709   -4.2255   -0.1245 C   0  0  0  0  0  0  0  0  0  4  0  0
    4.9395   -6.2810   -0.0074 C   0  0  0  0  0  0  0  0  0  5  0  0
    7.9754   -4.0422   -0.0997 C   0  0  0  0  0  0  0  0  0  6  0  0
   -1.4318   -5.5831   -0.0923 C   0  0  0  0  0  0  0  0  0  7  0  0
    3.6577   -5.5440   -0.2039 N   0  0  0  0  0  0  0  0  0  8  0  0
   -0.0915   -6.1582   -0.2144 N   0  0  0  0  0  0  0  0  0  9  0  0
    1.0792   -5.5774    0.1040 C   0  0  0  0  0  0  0  0  0 10  0  0
   10.1256   -5.5620    0.0009 C   0  0  0  0  0  0  0  0  0 11  0  0
    2.4031   -6.3542   -0.1378 C   0  0  0  0  0  0  0  0  0 12  0  0
    4.8322   -7.4873    0.2225 O   0  0  0  0  0  0  0  0  0 13  0  0
   -2.5474   -6.5420   -0.0175 C   0  0  0  0  0  0  0  0  0 14  0  0
   -1.7213   -4.2619   -0.0765 C   0  0  0  0  0  0  0  0  0 15  0  0
    1.0872   -4.4676    0.6322 O   0  0  0  0  0  0  0  0  0 16  0  0
   11.0823   -4.4293   -0.0102 C   0  0  0  0  0  0  0  0  0 17  0  0
   10.6470   -6.7897    0.0180 C   0  0  0  0  0  0  0  0  0 18  0  0
    7.6705   -7.8258    0.1255 C   0  0  0  0  0  0  0  0  0 19  0  0
   12.9325   -5.9607    0.0121 C   0  0  0  0  0  0  0  0  0 20  0  0
    8.5577   -2.6457   -0.1583 C   0  0  0  0  0  0  0  0  0 21  0  0
   -0.7892   -3.3104   -0.1792 F   0  0  0  0  0  0  0  0  0 22  0  0
   -2.2909   -7.8554   -0.0381 F   0  0  0  0  0  0  0  0  0 23  0  0
   12.1033   -7.0014    0.0240 C   0  0  0  0  0  0  0  0  0 24  0  0
   12.3973   -4.6184   -0.0046 C   0  0  0  0  0  0  0  0  0 25  0  0
   14.2589   -6.1504    0.0153 F   0  0  0  0  0  0  0  0  0 26  0  0
    3.5809   -4.1217   -0.5895 C   0  0  0  0  0  0  0  0  0 27  0  0
   -4.1068   -4.7014    0.0953 C   0  0  0  0  0  0  0  0  0 28  0  0
   -3.8082   -6.1222    0.0703 C   0  0  0  0  0  0  0  0  0 29  0  0
   -3.1166   -3.8190    0.0267 C   0  0  0  0  0  0  0  0  0 30  0  0
    3.6696   -3.1595    0.6372 C   0  0  0  0  0  0  0  0  0 31  0  0
  2  1  2  0
  3  2  1  0
  4  1  1  0
  5  1  1  0
  6  4  2  0
  7  9  1  0
  8  5  1  0
  9 10  1  0
 10 12  1  0
 11  3  1  0
 12  8  1  0
 13  5  2  0
 14  7  1  0
 15  7  2  0
 16 10  2  0
 17 11  1  0
 18 11  2  0
 19  2  1  0
 20 24  2  0
 21  6  1  0
 22 15  1  0
 23 14  1  0
 24 18  1  0
 25 17  2  0
 26 20  1  0
 27  8  1  0
 28 30  2  0
 29 14  2  0
 30 15  1  0
 31 27  1  0
  3  6  1  0
 20 25  1  0
 28 29  1  0
M  END
> <Name>
Molecule

> <Mol Weight>
429.166

> <Mol Formula>
C23H22F3N3O2

> <MolPort Reference Number>
15

> <MolPort Id>
MolPort-009-471-103

> <Catalog No.>
Z252425684

> <Supplier>
ENAMINE Ltd.

> <Box No.>
1

> <Box Row>
B

> <Box Column>
2

> <Quantity>
5.1mg

> <OSM number>
OSM-S-86

> <OSM_ID>
OSM-S-86

$$$$
Molecule
  SciTegic10291209353D

 28 30  0  0  0  0            999 V2000
    6.1197   -5.5395    0.0001 C   0  0  0  0  0  0  0  0  0  1  0  0
    7.3021   -6.1828   -0.0001 C   0  0  0  0  0  0  0  0  0  2  0  0
    8.3778   -5.1781    0.0000 N   0  0  0  0  0  0  0  0  0  3  0  0
    6.3945   -4.0952    0.0004 C   0  0  0  0  0  0  0  0  0  4  0  0
    4.7069   -6.2090    0.0001 C   0  0  0  0  0  0  0  0  0  5  0  0
    7.7014   -3.9015    0.0004 C   0  0  0  0  0  0  0  0  0  6  0  0
   -1.5504   -5.6866    0.0003 C   0  0  0  0  0  0  0  0  0  7  0  0
   -1.7097   -4.4200   -0.0019 N   0  0  0  0  0  0  0  0  0  8  0  0
    9.8668   -5.4098   -0.0002 C   0  0  0  0  0  0  0  0  0  9  0  0
   -2.8293   -6.3424    0.0020 C   0  0  0  0  0  0  0  0  0 10  0  0
    3.4260   -5.4945    0.0007 N   0  0  0  0  0  0  0  0  0 11  0  0
   -0.3046   -6.3406    0.0012 N   0  0  0  0  0  0  0  0  0 12  0  0
    0.8095   -5.6135   -0.0007 C   0  0  0  0  0  0  0  0  0 13  0  0
   -2.9968   -4.1494   -0.0019 O   0  0  0  0  0  0  0  0  0 14  0  0
   -3.6787   -5.3273    0.0005 C   0  0  0  0  0  0  0  0  0 15  0  0
    2.1911   -6.3294    0.0005 C   0  0  0  0  0  0  0  0  0 16  0  0
    4.6288   -7.4424   -0.0006 O   0  0  0  0  0  0  0  0  0 17  0  0
   10.3875   -6.6395   -0.0003 C   0  0  0  0  0  0  0  0  0 18  0  0
    0.6871   -4.3851   -0.0034 O   0  0  0  0  0  0  0  0  0 19  0  0
    7.4455   -7.6999   -0.0005 C   0  0  0  0  0  0  0  0  0 20  0  0
    8.2765   -2.5009    0.0007 C   0  0  0  0  0  0  0  0  0 21  0  0
   11.8366   -6.8594   -0.0004 C   0  0  0  0  0  0  0  0  0 22  0  0
   10.8255   -4.2800   -0.0002 C   0  0  0  0  0  0  0  0  0 23  0  0
    3.3417   -4.0518    0.0018 C   0  0  0  0  0  0  0  0  0 24  0  0
   12.1406   -4.4768   -0.0004 C   0  0  0  0  0  0  0  0  0 25  0  0
   -5.1722   -5.4509    0.0014 C   0  0  0  0  0  0  0  0  0 26  0  0
   12.6717   -5.8258   -0.0005 C   0  0  0  0  0  0  0  0  0 27  0  0
   12.3801   -8.2560   -0.0005 C   0  0  0  0  0  0  0  0  0 28  0  0
  2  1  2  0
  3  2  1  0
  4  1  1  0
  5  1  1  0
  6  4  2  0
  7 12  1  0
  8  7  2  0
  9  3  1  0
 10  7  1  0
 11  5  1  0
 12 13  1  0
 13 16  1  0
 14  8  1  0
 15 10  2  0
 16 11  1  0
 17  5  2  0
 18  9  2  0
 19 13  2  0
 20  2  1  0
 21  6  1  0
 22 18  1  0
 23  9  1  0
 24 11  1  0
 25 23  2  0
 26 15  1  0
 27 22  2  0
 28 22  1  0
  3  6  1  0
 27 25  1  0
 14 15  1  0
M  END
> <Name>
Molecule

> <Mol Weight>
380.185

> <Mol Formula>
C21H24N4O3

> <MolPort Reference Number>
16

> <MolPort Id>
MolPort-009-144-790

> <Catalog No.>
Z168527658

> <Supplier>
ENAMINE Ltd.

> <Box No.>
1

> <Box Row>
B

> <Box Column>
3

> <Quantity>
5.1mg

> <OSM number>
OSM-S-87

> <OSM_ID>
OSM-S-87

$$$$
Molecule
  SciTegic10291209353D

 27 29  0  0  0  0            999 V2000
    0.1550   -3.9466    0.0095 N   0  0  0  0  0  0  0  0  0  1  0  0
    1.6076   -3.8231   -0.1135 C   0  0  0  0  0  0  0  0  0  2  0  0
    0.7283   -1.7726    0.1025 C   0  0  0  0  0  0  0  0  0  3  0  0
   -0.3201   -2.5829    0.1463 C   0  0  0  0  0  0  0  0  0  4  0  0
    1.9546   -2.5355   -0.0667 C   0  0  0  0  0  0  0  0  0  5  0  0
    2.0572    4.6272   -0.1714 N   0  0  0  0  0  0  0  0  0  6  0  0
   -0.6654   -5.2072    0.0007 C   0  0  0  0  0  0  0  0  0  7  0  0
    0.6548   -0.2810    0.2332 C   0  0  0  0  0  0  0  0  0  8  0  0
    1.0367    6.9250   -0.1009 C   0  0  0  0  0  0  0  0  0  9  0  0
    1.9259    0.3365   -0.1718 N   0  0  0  0  0  0  0  0  0 10  0  0
    2.1590    6.0114    0.3589 C   0  0  0  0  0  0  0  0  0 11  0  0
    0.1559    6.5266   -0.8730 O   0  0  0  0  0  0  0  0  0 12  0  0
   -0.0393   -6.5473   -0.0771 C   0  0  0  0  0  0  0  0  0 13  0  0
   -2.0002   -5.1660    0.0634 C   0  0  0  0  0  0  0  0  0 14  0  0
    3.2293    2.4274   -0.2343 C   0  0  0  0  0  0  0  0  0 15  0  0
    0.7344    2.5234   -0.2122 C   0  0  0  0  0  0  0  0  0 16  0  0
    3.2560    3.8806    0.2839 C   0  0  0  0  0  0  0  0  0 17  0  0
    0.8264    3.9633    0.3362 C   0  0  0  0  0  0  0  0  0 18  0  0
    1.9593    1.7390    0.2858 C   0  0  0  0  0  0  0  0  0 19  0  0
    1.0135    8.1855    0.3237 N   0  0  0  0  0  0  0  0  0 20  0  0
   -2.2241   -7.5739   -0.0143 C   0  0  0  0  0  0  0  0  0 21  0  0
    2.6424   -4.9151   -0.2763 C   0  0  0  0  0  0  0  0  0 22  0  0
   -1.7365   -2.0612    0.3226 C   0  0  0  0  0  0  0  0  0 23  0  0
   -2.8103   -6.3842    0.0551 C   0  0  0  0  0  0  0  0  0 24  0  0
   -0.7737   -7.6582   -0.0830 C   0  0  0  0  0  0  0  0  0 25  0  0
   -3.1805   -9.0129   -0.0234 Cl  0  0  0  0  0  0  0  0  0 26  0  0
   -0.0302    9.0710   -0.1048 C   0  0  0  0  0  0  0  0  0 27  0  0
  2  1  1  0
  3  4  2  0
  4  1  1  0
  5  2  2  0
  6 18  1  0
  7  1  1  0
  8  3  1  0
  9 11  1  0
 10  8  1  0
 11  6  1  0
 12  9  2  0
 13  7  1  0
 14  7  2  0
 15 19  1  0
 16 19  1  0
 17 15  1  0
 18 16  1  0
 19 10  1  0
 20  9  1  0
 21 24  2  0
 22  2  1  0
 23  4  1  0
 24 14  1  0
 25 13  2  0
 26 21  1  0
 27 20  1  0
  5  3  1  0
 21 25  1  0
 17  6  1  0
M  END
> <Name>
Molecule

> <Mol Weight>
388.203

> <Mol Formula>
C21H29ClN4O

> <MolPort Reference Number>
17

> <MolPort Id>
MolPort-023-135-563

> <Catalog No.>
Z401944072

> <Supplier>
ENAMINE Ltd.

> <OSM_ID>
OSM-S-88

$$$$
Molecule
  SciTegic10291209353D

 26 28  0  0  0  0            999 V2000
   -0.6876   -5.2808    0.0233 N   0  0  0  0  0  0  0  0  0  1  0  0
    1.5732   -5.5834   -0.1263 C   0  0  0  0  0  0  0  0  0  2  0  0
    4.1184   -5.4060    0.0407 N   0  0  0  0  0  0  0  0  0  3  0  0
    0.0136   -4.0268    0.3489 C   0  0  0  0  0  0  0  0  0  4  0  0
    0.4089   -6.2182   -0.2878 C   0  0  0  0  0  0  0  0  0  5  0  0
    1.3277   -4.2101    0.2905 C   0  0  0  0  0  0  0  0  0  6  0  0
    5.4344   -6.0482   -0.2112 C   0  0  0  0  0  0  0  0  0  7  0  0
    2.9497   -6.2408   -0.3838 C   0  0  0  0  0  0  0  0  0  8  0  0
   -2.2278   -5.4760   -0.0039 C   0  0  0  0  0  0  0  0  0  9  0  0
    5.7458   -7.4105    0.4812 C   0  0  0  0  0  0  0  0  0 10  0  0
    6.4496   -4.8914    0.0886 C   0  0  0  0  0  0  0  0  0 11  0  0
    4.3484   -4.1913   -0.8121 C   0  0  0  0  0  0  0  0  0 12  0  0
   -2.9190   -6.6357    0.1402 C   0  0  0  0  0  0  0  0  0 13  0  0
    5.5437   -3.6665   -0.0499 C   0  0  0  0  0  0  0  0  0 14  0  0
    4.8651   -7.9317    1.1737 O   0  0  0  0  0  0  0  0  0 15  0  0
    6.9177   -8.0885    0.3726 N   0  0  0  0  0  0  0  0  0 16  0  0
   -0.5585   -2.6802    0.7543 C   0  0  0  0  0  0  0  0  0 17  0  0
    6.2054   -2.4824   -0.6116 N   0  0  0  0  0  0  0  0  0 18  0  0
   -2.2256   -8.1821    0.4363 Cl  0  0  0  0  0  0  0  0  0 19  0  0
    0.3761   -7.6315   -0.7756 C   0  0  0  0  0  0  0  0  0 20  0  0
   -3.0622   -4.2509   -0.1842 C   0  0  0  0  0  0  0  0  0 21  0  0
   -4.3958   -6.6340    0.0994 C   0  0  0  0  0  0  0  0  0 22  0  0
    8.0790   -7.6898   -0.4043 C   0  0  0  0  0  0  0  0  0 23  0  0
    9.3466   -8.3141    0.2163 C   0  0  0  0  0  0  0  0  0 24  0  0
   -4.3911   -4.2731   -0.2063 C   0  0  0  0  0  0  0  0  0 25  0  0
   -5.0891   -5.5150   -0.0625 C   0  0  0  0  0  0  0  0  0 26  0  0
  2  5  2  0
  3  8  1  0
  4  1  1  0
  5  1  1  0
  6  4  2  0
  7  3  1  0
  8  2  1  0
  9  1  1  0
  7 10  1  0
 11  7  1  0
 12  3  1  0
 13  9  2  0
 14 12  1  0
 15 10  2  0
 16 10  1  0
 17  4  1  0
 14 18  1  0
 19 13  1  0
 20  5  1  0
 21  9  1  0
 22 13  1  0
 23 16  1  0
 24 23  1  0
 25 21  2  0
 26 25  1  0
  6  2  1  0
 22 26  2  0
 11 14  1  0
M  END
> <Name>
Molecule

> <Mol Weight>
374.187

> <Mol Formula>
C20H27ClN4O

> <MolPort Reference Number>
18

> <MolPort Id>
MolPort-019-816-620

> <Catalog No.>
70163819

> <Supplier>
ChemBridge Corporation

> <OSM_ID>
OSM-S-89

$$$$
Molecule
  SciTegic10291209353D

 25 27  0  0  0  0            999 V2000
    4.2953    1.7301   -0.0169 C   0  0  0  0  0  0  0  0  0  1  0  0
    5.2019   -0.3481   -0.1249 N   0  0  0  0  0  0  0  0  0  2  0  0
    6.2458    0.6039    0.2084 C   0  0  0  0  0  0  0  0  0  3  0  0
    4.0009    0.4587   -0.3094 C   0  0  0  0  0  0  0  0  0  4  0  0
    5.7230    1.8270    0.2999 C   0  0  0  0  0  0  0  0  0  5  0  0
    3.3989    3.0139   -0.0368 C   0  0  0  0  0  0  0  0  0  6  0  0
    1.9191    2.8461   -0.1412 N   0  0  0  0  0  0  0  0  0  7  0  0
   -2.3253    3.0588    0.1010 C   0  0  0  0  0  0  0  0  0  8  0  0
    5.3237   -1.8496   -0.1475 C   0  0  0  0  0  0  0  0  0  9  0  0
   -0.8824    3.3045    0.4355 C   0  0  0  0  0  0  0  0  0 10  0  0
   -2.8635    1.9940    0.4253 O   0  0  0  0  0  0  0  0  0 11  0  0
    6.6236   -2.5515   -0.0793 C   0  0  0  0  0  0  0  0  0 12  0  0
    4.2238   -2.6236   -0.1746 C   0  0  0  0  0  0  0  0  0 13  0  0
   -0.1873    3.9804   -0.7490 C   0  0  0  0  0  0  0  0  0 14  0  0
   -0.1880    2.0044    0.8378 C   0  0  0  0  0  0  0  0  0 15  0  0
    1.3083    4.1687   -0.4300 C   0  0  0  0  0  0  0  0  0 16  0  0
    1.3023    2.3097    1.1208 C   0  0  0  0  0  0  0  0  0 17  0  0
   -3.0379    4.0029   -0.6307 O   0  0  0  0  0  0  0  0  0 18  0  0
    7.7151    0.3513    0.4654 C   0  0  0  0  0  0  0  0  0 19  0  0
    2.6411   -0.0480   -0.7933 C   0  0  0  0  0  0  0  0  0 20  0  0
    6.6984   -3.8803   -0.0444 C   0  0  0  0  0  0  0  0  0 21  0  0
    4.3022   -4.0755   -0.1374 C   0  0  0  0  0  0  0  0  0 22  0  0
    5.4793   -4.6822   -0.0702 C   0  0  0  0  0  0  0  0  0 23  0  0
    5.5597   -6.1862   -0.0128 C   0  0  0  0  0  0  0  0  0 24  0  0
    4.1402   -6.7976    0.0022 C   0  0  0  0  0  0  0  0  0 25  0  0
  2  4  1  0
  3  5  2  0
  4  1  2  0
  5  1  1  0
  6  1  1  0
  7  6  1  0
  8 10  1  0
  9  2  1  0
 10 15  1  0
 11  8  2  0
 12  9  1  0
 13  9  2  0
 14 16  1  0
 15 17  1  0
 16  7  1  0
 17  7  1  0
 18  8  1  0
 19  3  1  0
 20  4  1  0
 21 12  2  0
 22 13  1  0
 23 22  2  0
 24 23  1  0
 25 24  1  0
  2  3  1  0
 14 10  1  0
 21 23  1  0
M  END
> <Name>
Molecule

> <Mol Weight>
340.215

> <Mol Formula>
C21H28N2O2

> <MolPort Reference Number>
19

> <MolPort Id>
MolPort-007-674-571

> <Catalog No.>
C799-0833

> <Supplier>
ChemDiv, Inc.

> <Box No.>
1

> <Box Row>
B

> <Box Column>
6

> <Quantity>
2.1

> <OSM number>
OSM-S-90

> <OSM_ID>
OSM-S-90

$$$$
Molecule
  SciTegic10291209353D

 23 24  0  0  0  0            999 V2000
    5.3198   -5.6173    0.0009 C   0  0  0  0  0  0  0  0  0  1  0  0
    6.5260   -6.1967    0.0009 C   0  0  0  0  0  0  0  0  0  2  0  0
    7.5307   -5.1404    0.0009 N   0  0  0  0  0  0  0  0  0  3  0  0
    5.4646   -4.1694    0.0010 C   0  0  0  0  0  0  0  0  0  4  0  0
    6.7682   -3.8969    0.0010 C   0  0  0  0  0  0  0  0  0  5  0  0
    4.0009   -6.2977    0.0007 C   0  0  0  0  0  0  0  0  0  6  0  0
    0.4443   -5.6259   -0.0005 C   0  0  0  0  0  0  0  0  0  7  0  0
    9.0317   -5.2979    0.0002 C   0  0  0  0  0  0  0  0  0  8  0  0
    2.8409   -5.5344    0.0003 O   0  0  0  0  0  0  0  0  0  9  0  0
   -0.7915   -6.2861   -0.0005 N   0  0  0  0  0  0  0  0  0 10  0  0
    1.7177   -6.4156    0.0000 C   0  0  0  0  0  0  0  0  0 11  0  0
    3.9039   -7.5300    0.0007 O   0  0  0  0  0  0  0  0  0 12  0  0
    0.4851   -4.3906   -0.0008 O   0  0  0  0  0  0  0  0  0 13  0  0
    9.9403   -4.1275   -0.0003 C   0  0  0  0  0  0  0  0  0 14  0  0
    9.6055   -6.5049   -0.0001 C   0  0  0  0  0  0  0  0  0 15  0  0
    6.7385   -7.7062    0.0008 C   0  0  0  0  0  0  0  0  0 16  0  0
   11.8498   -5.6051   -0.0015 C   0  0  0  0  0  0  0  0  0 17  0  0
    7.2746   -2.4704    0.0012 C   0  0  0  0  0  0  0  0  0 18  0  0
   11.0582   -6.6709   -0.0010 C   0  0  0  0  0  0  0  0  0 19  0  0
   11.2639   -4.2745   -0.0011 C   0  0  0  0  0  0  0  0  0 20  0  0
   13.1817   -5.7562   -0.0024 F   0  0  0  0  0  0  0  0  0 21  0  0
   -2.0071   -5.5261   -0.0009 C   0  0  0  0  0  0  0  0  0 22  0  0
   -0.8465   -7.7235   -0.0001 C   0  0  0  0  0  0  0  0  0 23  0  0
  2  1  2  0
  3  2  1  0
  4  1  1  0
  5  4  2  0
  6  1  1  0
  7 11  1  0
  8  3  1  0
  9  6  1  0
 10  7  1  0
 11  9  1  0
 12  6  2  0
 13  7  2  0
 14  8  1  0
 15  8  2  0
 16  2  1  0
 17 19  2  0
 18  5  1  0
 19 15  1  0
 20 14  2  0
 21 17  1  0
 22 10  1  0
 23 10  1  0
  3  5  1  0
 17 20  1  0
M  END
> <Name>
Molecule

> <Mol Weight>
318.138

> <Mol Formula>
C17H19FN2O3

> <MolPort Reference Number>
20

> <MolPort Id>
MolPort-004-024-481

> <Catalog No.>
Z18963831

> <Supplier>
ENAMINE Ltd.

> <Box No.>
1

> <Box Row>
B

> <Box Column>
7

> <Quantity>
5.1mg

> <OSM number>
OSM-S-91

> <OSM_ID>
OSM-S-91

$$$$
Molecule
  SciTegic10291209353D

 19 20  0  0  0  0            999 V2000
   25.2018  -44.9054   -0.0001 C   0  0  0  0  0  0  0  0  0  1  0  0
   23.8820  -44.9740   -0.0002 C   0  0  0  0  0  0  0  0  0  2  0  0
   23.6197  -46.3377    0.0001 N   0  0  0  0  0  0  0  0  0  3  0  0
   24.7631  -47.0574    0.0003 N   0  0  0  0  0  0  0  0  0  4  0  0
   25.7531  -46.2495    0.0002 C   0  0  0  0  0  0  0  0  0  5  0  0
   22.3420  -46.8939    0.0001 C   0  0  0  0  0  0  0  0  0  6  0  0
   21.2697  -46.1035   -0.0001 C   0  0  0  0  0  0  0  0  0  7  0  0
   19.9280  -46.6900    0.0000 C   0  0  0  0  0  0  0  0  0  8  0  0
   19.7804  -48.0139    0.0003 C   0  0  0  0  0  0  0  0  0  9  0  0
   20.9600  -48.8830    0.0006 C   0  0  0  0  0  0  0  0  0 10  0  0
   22.1801  -48.3491    0.0005 C   0  0  0  0  0  0  0  0  0 11  0  0
   18.5520  -48.5513    0.0004 F   0  0  0  0  0  0  0  0  0 12  0  0
   25.9815  -43.6717   -0.0002 C   0  0  0  0  0  0  0  0  0 13  0  0
   25.4042  -42.5785   -0.0004 O   0  0  0  0  0  0  0  0  0 14  0  0
   27.3720  -43.7280   -0.0001 O   0  0  0  0  0  0  0  0  0 15  0  0
   27.9045  -42.4013   -0.0002 C   0  0  0  0  0  0  0  0  0 16  0  0
   29.4026  -42.4641    0.0000 C   0  0  0  0  0  0  0  0  0 17  0  0
   30.1508  -41.2850    0.0001 N   0  0  0  0  0  0  0  0  0 18  0  0
   29.9746  -43.5599   -0.0001 O   0  0  0  0  0  0  0  0  0 19  0  0
  1  2  2  0
  2  3  1  0
  3  4  1  0
  4  5  2  0
  5  1  1  0
  3  6  1  0
  6  7  2  0
  7  8  1  0
  8  9  2  0
  9 10  1  0
 10 11  2  0
 11  6  1  0
  9 12  1  0
 13 14  2  0
 13 15  1  0
 15 16  1  0
 16 17  1  0
 17 18  1  0
 17 19  2  0
 13  1  1  0
M  END
> <Name>
Molecule

> <OSM_ID>
OSM-S-92

> <Chemist_code>
PMY66-1

$$$$
Molecule
  SciTegic10291209353D

 19 20  0  0  0  0            999 V2000
   40.7006  -43.9233    0.0001 C   0  0  0  0  0  0  0  0  0  1  0  0
   39.3753  -44.1540    0.0002 C   0  0  0  0  0  0  0  0  0  2  0  0
   39.1527  -45.6022    0.0004 N   0  0  0  0  0  0  0  0  0  3  0  0
   40.4794  -46.1860    0.0006 C   0  0  0  0  0  0  0  0  0  4  0  0
   41.3918  -45.2216    0.0004 C   0  0  0  0  0  0  0  0  0  5  0  0
   37.8300  -46.3376    0.0003 C   0  0  0  0  0  0  0  0  0  6  0  0
   36.6636  -45.6840   -0.0003 C   0  0  0  0  0  0  0  0  0  7  0  0
   35.3813  -46.3913   -0.0005 C   0  0  0  0  0  0  0  0  0  8  0  0
   35.3519  -47.7191    0.0000 C   0  0  0  0  0  0  0  0  0  9  0  0
   36.5980  -48.4645    0.0007 C   0  0  0  0  0  0  0  0  0 10  0  0
   37.7619  -47.8184    0.0009 C   0  0  0  0  0  0  0  0  0 11  0  0
   34.1787  -48.3677   -0.0002 F   0  0  0  0  0  0  0  0  0 12  0  0
   41.3726  -42.5227   -0.0002 C   0  0  0  0  0  0  0  0  0 13  0  0
   40.6566  -41.5158   -0.0004 O   0  0  0  0  0  0  0  0  0 14  0  0
   38.3206  -43.0524   -0.0001 C   0  0  0  0  0  0  0  0  0 15  0  0
   40.8830  -47.6450    0.0009 C   0  0  0  0  0  0  0  0  0 16  0  0
   42.8016  -42.2581   -0.0004 N   0  0  0  0  0  0  0  0  0 17  0  0
   43.8328  -43.2670   -0.0003 C   0  0  0  0  0  0  0  0  0 18  0  0
   43.2198  -40.8864   -0.0008 C   0  0  0  0  0  0  0  0  0 19  0  0
  1  2  2  0
  2  3  1  0
  3  4  1  0
  4  5  2  0
  5  1  1  0
  3  6  1  0
  6  7  2  0
  7  8  1  0
  8  9  2  0
  9 10  1  0
 10 11  2  0
 11  6  1  0
  9 12  1  0
 13 14  2  0
  2 15  1  0
  4 16  1  0
 13 17  1  0
 17 18  1  0
 17 19  1  0
 13  1  1  0
M  END
> <Name>
Molecule

> <OSM_ID>
OSM-S-93

> <Chemist_code>
AEW16-1

$$$$
Molecule
  SciTegic10291209353D

 20 22  0  0  0  0            999 V2000
   52.3476  -43.8303    0.0368 C   0  0  0  0  0  0  0  0  0  1  0  0
   51.0400  -44.0491   -0.0644 C   0  0  0  0  0  0  0  0  0  2  0  0
   50.8072  -45.4832    0.0125 N   0  0  0  0  0  0  0  0  0  3  0  0
   52.1354  -46.0696    0.1588 C   0  0  0  0  0  0  0  0  0  4  0  0
   53.0508  -45.1040    0.1847 C   0  0  0  0  0  0  0  0  0  5  0  0
   49.4859  -46.2031   -0.0094 C   0  0  0  0  0  0  0  0  0  6  0  0
   48.3297  -45.5364   -0.0728 C   0  0  0  0  0  0  0  0  0  7  0  0
   47.0400  -46.2317   -0.0793 C   0  0  0  0  0  0  0  0  0  8  0  0
   46.9970  -47.5584   -0.0206 C   0  0  0  0  0  0  0  0  0  9  0  0
   48.2347  -48.3152    0.0472 C   0  0  0  0  0  0  0  0  0 10  0  0
   49.4047  -47.6808    0.0528 C   0  0  0  0  0  0  0  0  0 11  0  0
   45.8177  -48.1957   -0.0235 F   0  0  0  0  0  0  0  0  0 12  0  0
   52.9806  -42.4391    0.0241 C   0  0  0  0  0  0  0  0  0 13  0  0
   50.0409  -42.9149   -0.2183 C   0  0  0  0  0  0  0  0  0 14  0  0
   52.5261  -47.5259    0.2848 C   0  0  0  0  0  0  0  0  0 15  0  0
   54.4526  -42.4341    0.2517 N   0  0  0  0  0  0  0  0  0 16  0  0
   55.2460  -42.9340   -0.8803 C   0  0  0  0  0  0  0  0  0 17  0  0
   56.6685  -42.6350   -0.3815 C   0  0  0  0  0  0  0  0  0 18  0  0
   56.4954  -41.2794    0.3535 C   0  0  0  0  0  0  0  0  0 19  0  0
   54.9623  -41.0676    0.3432 C   0  0  0  0  0  0  0  0  0 20  0  0
  1  2  2  0
  2  3  1  0
  3  4  1  0
  4  5  2  0
  5  1  1  0
  3  6  1  0
  6  7  2  0
  7  8  1  0
  8  9  2  0
  9 10  1  0
 10 11  2  0
 11  6  1  0
  9 12  1  0
  2 14  1  0
  4 15  1  0
 13 16  1  0
 16 17  1  0
 17 18  1  0
 18 19  1  0
 19 20  1  0
 20 16  1  0
 13  1  1  0
M  END
> <Name>
Molecule

> <OSM_ID>
OSM-S-94

> <Chemist_code>
AEW12-1

$$$$
Molecule
  SciTegic10291209353D

 29 32  0  0  0  0            999 V2000
   65.9044  -45.0247    0.0495 C   0  0  0  0  0  0  0  0  0  1  0  0
   64.9263  -45.9060    0.0239 C   0  0  0  0  0  0  0  0  0  2  0  0
   63.6612  -45.2053    0.0416 N   0  0  0  0  0  0  0  0  0  3  0  0
   64.0199  -43.7842    0.0837 C   0  0  0  0  0  0  0  0  0  4  0  0
   65.3496  -43.6837    0.0768 C   0  0  0  0  0  0  0  0  0  5  0  0
   62.3017  -45.8235    0.0249 C   0  0  0  0  0  0  0  0  0  6  0  0
   62.1574  -47.1491   -0.0249 C   0  0  0  0  0  0  0  0  0  7  0  0
   60.8553  -47.7889   -0.0421 C   0  0  0  0  0  0  0  0  0  8  0  0
   59.7571  -47.0474   -0.0076 C   0  0  0  0  0  0  0  0  0  9  0  0
   59.8680  -45.5932    0.0468 C   0  0  0  0  0  0  0  0  0 10  0  0
   61.0680  -45.0126    0.0619 C   0  0  0  0  0  0  0  0  0 11  0  0
   58.5553  -47.6361   -0.0229 F   0  0  0  0  0  0  0  0  0 12  0  0
   66.1480  -42.3250    0.1350 C   0  0  0  0  0  0  0  0  0 13  0  0
   65.2324  -47.3942   -0.0122 C   0  0  0  0  0  0  0  0  0 14  0  0
   63.1075  -42.5758    0.1282 C   0  0  0  0  0  0  0  0  0 15  0  0
   67.6359  -42.2019   -0.3227 N   0  0  0  0  0  0  0  0  0 16  0  0
   68.5705  -43.2826    0.1106 C   0  0  0  0  0  0  0  0  0 17  0  0
   68.7241  -44.2931   -1.0457 C   0  0  0  0  0  0  0  0  0 18  0  0
   69.5236  -45.4846   -0.5471 C   0  0  0  0  0  0  0  0  0 19  0  0
   70.8670  -45.0705   -0.1907 N   0  0  0  0  0  0  0  0  0 20  0  0
   70.8225  -44.0287    0.8978 C   0  0  0  0  0  0  0  0  0 21  0  0
   69.9901  -42.7890    0.4371 C   0  0  0  0  0  0  0  0  0 22  0  0
   71.5695  -46.2985    0.2392 C   0  0  0  0  0  0  0  0  0 23  0  0
   73.0653  -46.2036    0.1407 C   0  0  0  0  0  0  0  0  0 24  0  0
   73.7969  -47.2684    0.4631 C   0  0  0  0  0  0  0  0  0 25  0  0
   75.2502  -47.2321    0.3149 C   0  0  0  0  0  0  0  0  0 26  0  0
   75.8444  -46.1375   -0.1564 C   0  0  0  0  0  0  0  0  0 27  0  0
   75.0440  -44.9681   -0.5213 C   0  0  0  0  0  0  0  0  0 28  0  0
   73.7219  -44.9994   -0.3826 C   0  0  0  0  0  0  0  0  0 29  0  0
  1  2  2  0
  2  3  1  0
  3  4  1  0
  4  5  2  0
  5  1  1  0
  3  6  1  0
  6  7  2  0
  7  8  1  0
  8  9  2  0
  9 10  1  0
 10 11  2  0
 11  6  1  0
  9 12  1  0
  5 13  1  0
  2 14  1  0
  4 15  1  0
 13 16  1  0
 16 17  1  0
 17 18  1  0
 18 19  1  0
 19 20  1  0
 20 21  1  0
 21 22  1  0
 22 17  1  0
 20 23  1  0
 23 24  1  0
 24 25  2  0
 25 26  1  0
 26 27  2  0
 27 28  1  0
 28 29  2  0
 29 24  1  0
M  END
> <Name>
Molecule

> <OSM_ID>
OSM-S-95

> <Chemist_code>
AEW9-2

$$$$
