(2Z,5Z)-5-((1-(3-fluorophenyl)-2,5-dimethyl-1H-pyrrol-3-yl)methylene)-3-phenyl-2-(phenylimino)thiazolidin-4-one
  SciTegic10081310362D

 34 38  0  0  0  0            999 V2000
    8.0416   -6.5578    0.0000 C   0  0
    8.0477   -5.3578    0.0000 C   0  0
    6.8386   -4.4700    0.0000 C   0  0
    7.3222   -3.0635    0.0000 C   0  0
    6.4437   -1.8466    0.0000 C   0  0
    4.9531   -1.9978    0.0000 C   0  0
    3.9511   -0.8815    0.0000 C   0  0
    2.5987   -1.5004    0.0000 N   0  0
    1.2990   -0.7500    0.0000 C   0  0
    0.0000   -1.5000    0.0000 C   0  0
   -1.2990   -0.7500    0.0000 C   0  0
   -1.2990    0.7500    0.0000 C   0  0
    0.0000    1.5000    0.0000 C   0  0
    1.2990    0.7500    0.0000 C   0  0
    2.7343   -2.9815    0.0000 C   0  0
    4.2010   -3.2956    0.0000 S   0  0
    1.6137   -3.9759    0.0000 N   0  0
    1.9143   -5.4464    0.0000 C   0  0
    3.3382   -5.9182    0.0000 C   0  0
    3.6416   -7.3872    0.0000 C   0  0
    2.5211   -8.3844    0.0000 C   0  0
    1.0972   -7.9127    0.0000 C   0  0
    0.7938   -6.4437    0.0000 C   0  0
    4.1955    0.2934    0.0000 O   0  0
    8.8094   -3.0534    0.0000 C   0  0
    9.5139   -2.0819    0.0000 C   0  0
    9.2656   -4.4823    0.0000 N   0  0
   10.6906   -4.9533    0.0000 C   0  0
   11.7299   -3.8693    0.0000 C   0  0
   13.1855   -4.2315    0.0000 C   0  0
   14.0187   -3.3680    0.0000 F   0  0
   13.5995   -5.6733    0.0000 C   0  0
   12.5580   -6.7527    0.0000 C   0  0
   11.1024   -6.3905    0.0000 C   0  0
  1  2  1  0
  2 27  1  0
  2  3  2  0
  3  4  1  0
  4  5  1  0
  4 25  2  0
  5  6  2  0
  6 16  1  0
  6  7  1  0
  7  8  1  0
  7 24  2  0
  8  9  1  0
  8 15  1  0
  9 14  1  0
  9 10  2  0
 10 11  1  0
 11 12  2  0
 12 13  1  0
 13 14  2  0
 15 16  1  0
 15 17  2  0
 17 18  1  0
 18 23  1  0
 18 19  2  0
 19 20  1  0
 20 21  2  0
 21 22  1  0
 22 23  2  0
 25 26  1  0
 25 27  1  0
 27 28  1  0
 28 34  1  0
 28 29  2  0
 29 30  1  0
 30 31  1  0
 30 32  2  0
 32 33  1  0
 33 34  2  0
M  END
> <Name>
(2Z,5Z)-5-((1-(3-fluorophenyl)-2,5-dimethyl-1H-pyrrol-3-yl)methylene)-3-phenyl-2-(phenylimino)thiazolidin-4-one

> <OSM_ID>
OSM-L-01

> <ChEMBL>
dep1

> <3D7_IC50_nM_Avery>
3200

> <Series Tag>
Series 1

$$$$
Molecule
  SciTegic10081310362D

 14 15  0  0  0  0            999 V2000
    1.2990   -0.7500    0.0000 C   0  0
    1.2990    0.7500    0.0000 C   0  0
    0.0000    1.5000    0.0000 C   0  0
   -1.2990    0.7500    0.0000 C   0  0
   -1.2990   -0.7500    0.0000 C   0  0
    0.0000   -1.5000    0.0000 C   0  0
   -2.5987   -1.5004    0.0000 N   0  0
    2.3383    1.3500    0.0000 F   0  0
   -3.9511   -0.8815    0.0000 C   0  0
   -4.9530   -1.9978    0.0000 C   0  0
   -4.2010   -3.2957    0.0000 C   0  0
   -2.7343   -2.9815    0.0000 C   0  0
   -1.8365   -3.7777    0.0000 C   0  0
   -4.1955    0.2933    0.0000 C   0  0
  1  2  2  0
  2  3  1  0
  3  4  2  0
  4  5  1  0
  5  6  2  0
  6  1  1  0
  5  7  1  0
  2  8  1  0
  7  9  1  0
  9 10  2  0
 10 11  1  0
 11 12  2  0
 12  7  1  0
 12 13  1  0
  9 14  1  0
M  END
> <Name>
Molecule

> <OSM_ID>
OSM-S-1

> <Sample_ID>
PMY 1-1, PMY 1-2, PMY 1-3, PMY 1-4, PMY 1-5, PMY 1-6

> <link>
http://malaria.ourexperiment.org/osm_procedures/5403/Preparation_of_14Fluorophenyl25dimethyl1Hpyrrole_OSMS1.html

> <Series Tag>
Series 1

$$$$
1-(4-fluorophenyl)-2,5-dimethyl-1H-pyrrole-3-carbaldehyde
  SciTegic10081310362D

 16 17  0  0  0  0            999 V2000
    4.1955    0.2934    0.0000 C   0  0
    3.9511   -0.8815    0.0000 C   0  0
    4.9531   -1.9978    0.0000 C   0  0
    4.2010   -3.2956    0.0000 C   0  0
    4.8111   -4.6641    0.0000 C   0  0
    6.0045   -4.7897    0.0000 O   0  0
    2.7343   -2.9815    0.0000 C   0  0
    1.8365   -3.7777    0.0000 C   0  0
    2.5987   -1.5004    0.0000 N   0  0
    1.2990   -0.7500    0.0000 C   0  0
    0.0000   -1.5000    0.0000 C   0  0
   -1.2990   -0.7500    0.0000 C   0  0
   -1.2990    0.7500    0.0000 C   0  0
    0.0000    1.5000    0.0000 C   0  0
    1.2990    0.7500    0.0000 C   0  0
   -2.3383    1.3500    0.0000 F   0  0
  1  2  1  0
  2  9  1  0
  2  3  2  0
  3  4  1  0
  4  5  1  0
  4  7  2  0
  5  6  2  0
  7  8  1  0
  7  9  1  0
  9 10  1  0
 10 15  1  0
 10 11  2  0
 11 12  1  0
 12 13  2  0
 13 14  1  0
 13 16  1  0
 14 15  2  0
M  END
> <Name>
1-(4-fluorophenyl)-2,5-dimethyl-1H-pyrrole-3-carbaldehyde

> <OSM_ID>
OSM-S-2

> <Sample_ID>
PMY 2-4

> <ChEMBL>
dep1

> <3D7_IC50_nM_GSK>
>5000

> <K1_IC50_nM_Avery>
50%@120uM

> <HEK293_at_120uM>
25%

> <link>
http://malaria.ourexperiment.org/osm_procedures/5848/Preparation_of_14fluorophenyl25dimethyl1Hpyrrole3carbaldehyde_OSMS2.html

> <3D7_IC50_nM_Avery>
60% @ 120000

> <Series Tag>
Series 1

$$$$
ethyl 1-(4-fluorophenyl)-2,5-dimethyl-1H-pyrrole-3-carboxylate
  SciTegic10081310362D

 19 20  0  0  0  0            999 V2000
    8.1082   -6.3175    0.0000 C   0  0
    6.9148   -6.1919    0.0000 C   0  0
    6.3037   -4.8211    0.0000 O   0  0
    4.8111   -4.6641    0.0000 C   0  0
    4.1059   -5.6350    0.0000 O   0  0
    4.2010   -3.2956    0.0000 C   0  0
    4.9531   -1.9978    0.0000 C   0  0
    3.9511   -0.8815    0.0000 C   0  0
    4.1955    0.2934    0.0000 C   0  0
    2.5987   -1.5004    0.0000 N   0  0
    2.7343   -2.9815    0.0000 C   0  0
    1.8365   -3.7777    0.0000 C   0  0
    1.2990   -0.7500    0.0000 C   0  0
    0.0000   -1.5000    0.0000 C   0  0
   -1.2990   -0.7500    0.0000 C   0  0
   -1.2990    0.7500    0.0000 C   0  0
    0.0000    1.5000    0.0000 C   0  0
    1.2990    0.7500    0.0000 C   0  0
   -2.3383    1.3500    0.0000 F   0  0
  1  2  1  0
  2  3  1  0
  3  4  1  0
  4  5  2  0
  4  6  1  0
  6 11  2  0
  6  7  1  0
  7  8  2  0
  8  9  1  0
  8 10  1  0
 10 11  1  0
 10 13  1  0
 11 12  1  0
 13 18  1  0
 13 14  2  0
 14 15  1  0
 15 16  2  0
 16 17  1  0
 16 19  1  0
 17 18  2  0
M  END
> <Name>
ethyl 1-(4-fluorophenyl)-2,5-dimethyl-1H-pyrrole-3-carboxylate

> <OSM_ID>
OSM-S-3

> <Sample_ID>
PMY 6-1, JRC 1-1

> <ChEMBL>
dep1

> <3D7_IC50_nM_GSK>
>5000

> <K1_IC50_nM_Avery>
12400

> <HEK293_at_120uM>
25%

> <link>
http://malaria.ourexperiment.org/osm_procedures/7048/Preparation_of_OSMS3.html

> <3D7_IC50_nM_Avery>
11960

> <Series Tag>
Series 1

$$$$
1-(4-fluorophenyl)-2,5-dimethyl-1H-pyrrole-3-carboxylic acid
  SciTegic10081310362D

 17 18  0  0  0  0            999 V2000
    4.1955    0.2934    0.0000 C   0  0
    3.9511   -0.8815    0.0000 C   0  0
    4.9531   -1.9978    0.0000 C   0  0
    4.2010   -3.2956    0.0000 C   0  0
    2.7343   -2.9815    0.0000 C   0  0
    1.8365   -3.7777    0.0000 C   0  0
    2.5987   -1.5004    0.0000 N   0  0
    1.2990   -0.7500    0.0000 C   0  0
    0.0000   -1.5000    0.0000 C   0  0
   -1.2990   -0.7500    0.0000 C   0  0
   -1.2990    0.7500    0.0000 C   0  0
    0.0000    1.5000    0.0000 C   0  0
    1.2990    0.7500    0.0000 C   0  0
   -2.3383    1.3500    0.0000 F   0  0
    4.8111   -4.6641    0.0000 C   0  0
    6.0045   -4.7897    0.0000 O   0  0
    4.1059   -5.6350    0.0000 O   0  0
  1  2  1  0
  2  7  1  0
  2  3  2  0
  3  4  1  0
  4  5  2  0
  4 15  1  0
  5  6  1  0
  5  7  1  0
  7  8  1  0
  8 13  1  0
  8  9  2  0
  9 10  1  0
 10 11  2  0
 11 12  1  0
 11 14  1  0
 12 13  2  0
 15 16  2  0
 15 17  1  0
M  END
> <Name>
1-(4-fluorophenyl)-2,5-dimethyl-1H-pyrrole-3-carboxylic acid

> <OSM_ID>
OSM-S-4

> <Sample_ID>
PMY 8-2, JRC 2-1

> <ChEMBL>
dep1

> <3D7_IC50_nM_GSK>
>5000

> <K1_IC50_nM_Avery>
50%@120uM

> <HEK293_at_120uM>
20%

> <link>
http://malaria.ourexperiment.org/osm_procedures/7051/Preparation_of_OSMS4.html

> <3D7_IC50_nM_Avery>
75% @ 120000

> <Series Tag>
Series 1

$$$$
TCMDC-123812
  SciTegic10081310362D

 21 22  0  0  0  0            999 V2000
    4.1955    0.2934    0.0000 C   0  0
    3.9511   -0.8815    0.0000 C   0  0
    4.9531   -1.9978    0.0000 C   0  0
    4.2010   -3.2956    0.0000 C   0  0
    2.7343   -2.9815    0.0000 C   0  0
    1.8365   -3.7777    0.0000 C   0  0
    2.5987   -1.5004    0.0000 N   0  0
    1.2990   -0.7500    0.0000 C   0  0
    0.0000   -1.5000    0.0000 C   0  0
   -1.2990   -0.7500    0.0000 C   0  0
   -1.2990    0.7500    0.0000 C   0  0
    0.0000    1.5000    0.0000 C   0  0
    1.2990    0.7500    0.0000 C   0  0
   -2.3383    1.3500    0.0000 F   0  0
    4.8111   -4.6641    0.0000 C   0  0
    4.1059   -5.6350    0.0000 O   0  0
    6.3036   -4.8212    0.0000 O   0  0
    6.9148   -6.1919    0.0000 C   0  0
    8.4073   -6.3490    0.0000 C   0  0
    9.1125   -5.3781    0.0000 N   0  0
    8.8960   -7.4450    0.0000 O   0  0
  1  2  1  0
  2  7  1  0
  2  3  2  0
  3  4  1  0
  4  5  2  0
  4 15  1  0
  5  6  1  0
  5  7  1  0
  7  8  1  0
  8 13  1  0
  8  9  2  0
  9 10  1  0
 10 11  2  0
 11 12  1  0
 11 14  1  0
 12 13  2  0
 15 16  2  0
 15 17  1  0
 17 18  1  0
 18 19  1  0
 19 20  1  0
 19 21  2  0
M  END
> <Name>
TCMDC-123812

> <OSM_ID>
OSM-S-5

> <Sample_ID>
PMY 10-2

> <ChEMBL>
dep1

> <3D7_IC50_nM_GSK>
818

> <K1_IC50_nM_Avery>
375

> <HEK293_at_120uM>
20%

> <Late_stage_gametocyte_IC50_nM>
598

> <Kinetic_solubility_pH2_ug_per_mL>
50-100

> <Kinetic_solubilitiy_pH6.5_ug_per_mL>
50-100

> <In_vitro_CLint_uL_min_mg_protein>
29

> <Degradation_half_life _mins>
59

> <Degradation_rate_classification>
moderate

> <hERG_IC50_uM>
>33

> <In_vivo_mouse_ P.Berghei_ora_50mg_per_kg>
neg

> <link>
http://malaria.ourexperiment.org/osm_procedures/7054/Preparation_of_OSMS5.html

> <3D7_IC50_nM_Avery>
404

> <Series Tag>
Series 1

$$$$
TCMDC-123794
  SciTegic10081310362D

 35 38  0  0  0  0            999 V2000
    4.1955    0.2934    0.0000 C   0  0
    3.9511   -0.8815    0.0000 C   0  0
    4.9531   -1.9978    0.0000 C   0  0
    4.2010   -3.2956    0.0000 C   0  0
    2.7343   -2.9815    0.0000 C   0  0
    1.8365   -3.7777    0.0000 C   0  0
    2.5987   -1.5004    0.0000 N   0  0
    1.2990   -0.7500    0.0000 C   0  0
    0.0000   -1.5000    0.0000 C   0  0
   -1.2990   -0.7500    0.0000 C   0  0
   -1.2990    0.7500    0.0000 C   0  0
    0.0000    1.5000    0.0000 C   0  0
    1.2990    0.7500    0.0000 C   0  0
   -2.3383    1.3500    0.0000 F   0  0
    4.8111   -4.6641    0.0000 C   0  0
    4.1059   -5.6350    0.0000 O   0  0
    6.3036   -4.8212    0.0000 O   0  0
    6.9148   -6.1919    0.0000 C   0  0
    8.4073   -6.3490    0.0000 C   0  0
    9.0185   -7.7198    0.0000 N   0  0
   10.5110   -7.8769    0.0000 C   0  0
   11.4909   -6.7580    0.0000 C   0  0
   11.2322   -5.5862    0.0000 C   0  0
   12.8623   -7.3655    0.0000 N   0  0
   13.9004   -6.7635    0.0000 C   0  0
   12.7084   -8.8576    0.0000 N   0  0
   13.8256   -9.8596    0.0000 C   0  0
   15.2119   -9.2824    0.0000 C   0  0
   16.4008  -10.1971    0.0000 C   0  0
   16.2030  -11.6840    0.0000 C   0  0
   14.8165  -12.2562    0.0000 C   0  0
   13.6276  -11.3415    0.0000 C   0  0
   11.2418   -9.1722    0.0000 C   0  0
   10.7493  -10.2665    0.0000 O   0  0
    9.1125   -5.3781    0.0000 O   0  0
  1  2  1  0
  2  7  1  0
  2  3  2  0
  3  4  1  0
  4  5  2  0
  4 15  1  0
  5  6  1  0
  5  7  1  0
  7  8  1  0
  8 13  1  0
  8  9  2  0
  9 10  1  0
 10 11  2  0
 11 12  1  0
 11 14  1  0
 12 13  2  0
 15 16  2  0
 15 17  1  0
 17 18  1  0
 18 19  1  0
 19 20  1  0
 19 35  2  0
 20 21  1  0
 21 33  1  0
 21 22  2  0
 22 23  1  0
 22 24  1  0
 24 25  1  0
 24 26  1  0
 26 27  1  0
 26 33  1  0
 27 32  1  0
 27 28  2  0
 28 29  1  0
 29 30  2  0
 30 31  1  0
 31 32  2  0
 33 34  2  0
M  END
> <Name>
TCMDC-123794

> <OSM_ID>
OSM-S-6

> <Sample_ID>
PMY 11-2

> <ChEMBL>
dep1

> <3D7_IC50_nM_GSK>
245

> <K1_IC50_nM_Avery>
152

> <HEK293_at_120uM>
20%

> <Kinetic_solubility_pH2_ug_per_mL>
12.5-25

> <Kinetic_solubilitiy_pH6.5_ug_per_mL>
12.5-25

> <In_vitro_CLint_uL_min_mg_protein>
60

> <Degradation_half_life _mins>
29

> <Degradation_rate_classification>
modrate

> <In_vivo_mouse_ P.Berghei_ora_50mg_per_kg>
neg

> <link>
http://malaria.ourexperiment.org/osm_procedures/7057/Preparation_of_OSMS6.html

> <3D7_IC50_nM_Avery>
345

> <Series Tag>
Series 1

$$$$
N-cyclohexyl-N-(cyclohexylcarbamoyl)-1-(4-fluorophenyl)-2,5-dimethyl-1H-pyrrole
  SciTegic10081310362D

 32 35  0  0  0  0            999 V2000
    1.2990   -0.7500    0.0000 C   0  0
    1.2990    0.7500    0.0000 C   0  0
    0.0000    1.5000    0.0000 C   0  0
   -1.2990    0.7500    0.0000 C   0  0
   -1.2990   -0.7500    0.0000 C   0  0
    0.0000   -1.5000    0.0000 C   0  0
   -2.5987   -1.5004    0.0000 N   0  0
    2.3383    1.3500    0.0000 F   0  0
   -3.9511   -0.8815    0.0000 C   0  0
   -4.9530   -1.9978    0.0000 C   0  0
   -4.2010   -3.2957    0.0000 C   0  0
   -2.7343   -2.9815    0.0000 C   0  0
   -1.8365   -3.7777    0.0000 C   0  0
   -4.1955    0.2933    0.0000 C   0  0
   -4.8110   -4.6641    0.0000 C   0  0
   -4.1059   -5.6350    0.0000 O   0  0
   -6.3036   -4.8212    0.0000 N   0  0
   -6.9147   -6.1920    0.0000 C   0  0
   -8.4073   -6.3491    0.0000 N   0  0
   -6.2096   -7.1629    0.0000 O   0  0
   -9.0184   -7.7198    0.0000 C   0  0
  -10.5100   -7.8790    0.0000 C   0  0
  -11.1180   -9.2503    0.0000 C   0  0
  -10.2344  -10.4625    0.0000 C   0  0
   -8.7429  -10.3034    0.0000 C   0  0
   -8.1349   -8.9321    0.0000 C   0  0
   -7.1855   -3.6069    0.0000 C   0  0
   -8.6776   -3.7613    0.0000 C   0  0
   -9.5575   -2.5464    0.0000 C   0  0
   -8.9453   -1.1771    0.0000 C   0  0
   -7.4532   -1.0226    0.0000 C   0  0
   -6.5734   -2.2374    0.0000 C   0  0
  1  2  2  0
  2  3  1  0
  3  4  2  0
  4  5  1  0
  5  6  2  0
  6  1  1  0
  5  7  1  0
  2  8  1  0
  7  9  1  0
  9 10  2  0
 10 11  1  0
 11 12  2  0
 12  7  1  0
 12 13  1  0
  9 14  1  0
 11 15  1  0
 15 16  2  0
 15 17  1  0
 18 19  1  0
 18 20  2  0
 19 21  1  0
 21 22  1  0
 22 23  1  0
 23 24  1  0
 24 25  1  0
 25 26  1  0
 26 21  1  0
 17 27  1  0
 27 28  1  0
 28 29  1  0
 29 30  1  0
 30 31  1  0
 31 32  1  0
 32 27  1  0
 17 18  1  0
M  END
> <Name>
N-cyclohexyl-N-(cyclohexylcarbamoyl)-1-(4-fluorophenyl)-2,5-dimethyl-1H-pyrrole

> <OSM_ID>
OSM-S-7

> <Sample_ID>
PMY 12-1

> <ChEMBL>
dep1+2

> <3D7_IC50_nM_Ralph>
>1000

> <3D7_IC50_nM_GSK>
>5000

> <K1_IC50_nM_Avery>
4550

> <HEK293_at_120uM>
75%

> <link>
http://malaria.ourexperiment.org/osm_procedures/7059/Preparation_of_OSMS7.html

> <3D7_IC50_nM_Avery>
7800

> <Series Tag>
Series 1

$$$$
N-(1,5-dimethyl-3-oxo-2-phenyl-2,3-dihydro-1H-pyrazol-4-yl)-1-(4-fluorophenyl)-
  SciTegic10081310362D

 31 34  0  0  0  0            999 V2000
    1.2990   -0.7500    0.0000 C   0  0
    1.2990    0.7500    0.0000 C   0  0
    0.0000    1.5000    0.0000 C   0  0
   -1.2990    0.7500    0.0000 C   0  0
   -1.2990   -0.7500    0.0000 C   0  0
    0.0000   -1.5000    0.0000 C   0  0
   -2.5987   -1.5004    0.0000 N   0  0
    2.3383    1.3500    0.0000 F   0  0
   -3.9511   -0.8815    0.0000 C   0  0
   -4.9530   -1.9978    0.0000 C   0  0
   -4.2010   -3.2957    0.0000 C   0  0
   -2.7343   -2.9815    0.0000 C   0  0
   -1.8365   -3.7777    0.0000 C   0  0
   -4.1955    0.2933    0.0000 C   0  0
   -4.8110   -4.6641    0.0000 C   0  0
   -4.1059   -5.6350    0.0000 O   0  0
   -6.3036   -4.8212    0.0000 N   0  0
   -6.9147   -6.1920    0.0000 C   0  0
   -8.3726   -6.4862    0.0000 C   0  0
   -8.5270   -7.9782    0.0000 N   0  0
   -7.1558   -8.5861    0.0000 N   0  0
   -6.1538   -7.4699    0.0000 C   0  0
   -9.2608   -5.6793    0.0000 O   0  0
   -4.9595   -7.5863    0.0000 C   0  0
   -6.9044   -9.7595    0.0000 C   0  0
   -9.8256   -8.7306    0.0000 C   0  0
  -11.1735   -8.0839    0.0000 C   0  0
  -12.4111   -8.9315    0.0000 C   0  0
  -12.2959  -10.4271    0.0000 C   0  0
  -10.9431  -11.0751    0.0000 C   0  0
   -9.7055  -10.2275    0.0000 C   0  0
  1  2  2  0
  2  3  1  0
  3  4  2  0
  4  5  1  0
  5  6  2  0
  6  1  1  0
  5  7  1  0
  2  8  1  0
  7  9  1  0
  9 10  2  0
 10 11  1  0
 11 12  2  0
 12  7  1  0
 12 13  1  0
  9 14  1  0
 11 15  1  0
 15 16  2  0
 15 17  1  0
 17 18  1  0
 18 19  1  0
 19 20  1  0
 20 21  1  0
 21 22  1  0
 22 18  2  0
 19 23  2  0
 22 24  1  0
 21 25  1  0
 20 26  1  0
 26 27  2  0
 27 28  1  0
 28 29  2  0
 29 30  1  0
 30 31  2  0
 31 26  1  0
M  END
> <Name>
N-(1,5-dimethyl-3-oxo-2-phenyl-2,3-dihydro-1H-pyrazol-4-yl)-1-(4-fluorophenyl)-

> <OSM_ID>
OSM-S-8

> <Sample_ID>
PMY 12-5

> <ChEMBL>
dep1+2

> <3D7_IC50_nM_Ralph>
>1000

> <3D7_IC50_nM_GSK>
>5000

> <link>
http://malaria.ourexperiment.org/osm_procedures/7060/Preparation_of_OSMS8.html

> <3D7_IC50_nM_Avery>
100% @ 80000

> <Series Tag>
Series 1

$$$$
(Z)-N-(5-((1-(4-fluorophenyl)-2,5-dimethyl-1H-pyrrol-3-yl)methylene)-4-oxo-4,5-
  SciTegic10081310362D

 31 34  0  0  0  0            999 V2000
    2.3383   -1.3500    0.0000 F   0  0
    1.2990   -0.7500    0.0000 C   0  0
    0.0000   -1.5000    0.0000 C   0  0
   -1.2990   -0.7500    0.0000 C   0  0
   -1.2990    0.7500    0.0000 C   0  0
   -2.5987    1.5004    0.0000 N   0  0
   -3.9492    0.8772    0.0000 C   0  0
   -4.1898   -0.2984    0.0000 C   0  0
   -4.9546    1.9903    0.0000 C   0  0
   -4.2067    3.2905    0.0000 C   0  0
   -4.8211    4.6570    0.0000 C   0  0
   -6.3142    4.8094    0.0000 C   0  0
   -7.2904    3.6874    0.0000 S   0  0
   -8.6639    4.2905    0.0000 C   0  0
   -9.9591    3.5375    0.0000 N   0  0
   -9.9572    2.0366    0.0000 C   0  0
   -8.9170    1.4383    0.0000 C   0  0
  -10.9953    1.4347    0.0000 O   0  0
  -11.2616    4.2831    0.0000 C   0  0
  -11.2641    5.7832    0.0000 C   0  0
  -12.5643    6.5311    0.0000 C   0  0
  -13.8622    5.7790    0.0000 C   0  0
  -13.8597    4.2790    0.0000 C   0  0
  -12.5595    3.5311    0.0000 C   0  0
   -8.5146    5.7831    0.0000 N   0  0
   -7.0490    6.1024    0.0000 C   0  0
   -6.5600    7.1982    0.0000 O   0  0
   -2.7390    2.9810    0.0000 C   0  0
   -1.8437    3.7801    0.0000 C   0  0
    0.0000    1.5000    0.0000 C   0  0
    1.2990    0.7500    0.0000 C   0  0
  1  2  1  0
  2 31  1  0
  2  3  2  0
  3  4  1  0
  4  5  2  0
  5  6  1  0
  5 30  1  0
  6 28  1  0
  6  7  1  0
  7  8  1  0
  7  9  2  0
  9 10  1  0
 10 11  1  0
 10 28  2  0
 11 12  2  0
 12 26  1  0
 12 13  1  0
 13 14  1  0
 14 15  1  0
 14 25  2  0
 15 16  1  0
 15 19  1  0
 16 17  1  0
 16 18  2  0
 19 24  1  0
 19 20  2  0
 20 21  1  0
 21 22  2  0
 22 23  1  0
 23 24  2  0
 25 26  1  0
 26 27  2  0
 28 29  1  0
 30 31  2  0
M  END
> <Name>
(Z)-N-(5-((1-(4-fluorophenyl)-2,5-dimethyl-1H-pyrrol-3-yl)methylene)-4-oxo-4,5-

> <OSM_ID>
OSM-S-9

> <Sample_ID>
PMY 14-1, PMY 35-1

> <ChEMBL>
dep1

> <3D7_IC50_nM_GSK>
46.5

> <K1_IC50_nM_Avery>
66.2

> <HEK293_at_120uM>
75%

> <Late_stage_gametocyte_IC50_nM>
53

> <Kinetic_solubility_pH2_ug_per_mL>
0-1.6

> <Kinetic_solubilitiy_pH6.5_ug_per_mL>
0-1.6

> <Degradation_rate_classification>
rapid non-NADPH acetamide hydrolysis to OSM-S-10

> <link>
http://malaria.ourexperiment.org/osm_procedures/7061/Preparation_of_OSMS9.html

> <3D7_IC50_nM_Avery>
47

> <Series Tag>
Series 1

$$$$
(Z)-5-((1-(4-fluorophenyl)-2,5-dimethyl-1H-pyrrol-3-yl)methylene)-2-(phenylamin
  SciTegic10081310362D

 28 31  0  0  0  0            999 V2000
   -3.6167   -4.5214    0.0000 C   0  0
   -2.7306   -5.3305    0.0000 C   0  0
   -1.2612   -5.0289    0.0000 C   0  0
   -0.5420   -6.3307    0.0000 C   0  0
    0.9498   -6.4949    0.0000 C   0  0
    1.8372   -5.2877    0.0000 C   0  0
    3.3372   -5.2929    0.0000 C   0  0
    3.8056   -3.8679    0.0000 N   0  0
    2.5951   -3.0039    0.0000 C   0  0
    2.5973   -1.5031    0.0000 N   0  0
    1.2990   -0.7500    0.0000 C   0  0
    0.0000   -1.5000    0.0000 C   0  0
   -1.2990   -0.7500    0.0000 C   0  0
   -1.2990    0.7500    0.0000 C   0  0
    0.0000    1.5000    0.0000 C   0  0
    1.2990    0.7500    0.0000 C   0  0
    1.3786   -3.8595    0.0000 S   0  0
    4.0391   -6.2662    0.0000 O   0  0
   -1.5317   -7.4408    0.0000 C   0  0
   -1.2834   -8.6149    0.0000 C   0  0
   -2.8978   -6.8212    0.0000 N   0  0
   -4.2026   -7.5625    0.0000 C   0  0
   -4.0953   -9.0604    0.0000 C   0  0
   -5.3401   -9.8974    0.0000 C   0  0
   -6.6873   -9.2378    0.0000 C   0  0
   -6.7898   -7.7413    0.0000 C   0  0
   -5.5450   -6.9044    0.0000 C   0  0
   -7.6832   -9.9074    0.0000 F   0  0
  1  2  1  0
  2 21  1  0
  2  3  2  0
  3  4  1  0
  4  5  1  0
  4 19  2  0
  5  6  2  0
  6 17  1  0
  6  7  1  0
  7  8  1  0
  7 18  2  0
  8  9  1  0
  9 10  2  0
  9 17  1  0
 10 11  1  0
 11 16  1  0
 11 12  2  0
 12 13  1  0
 13 14  2  0
 14 15  1  0
 15 16  2  0
 19 20  1  0
 19 21  1  0
 21 22  1  0
 22 27  1  0
 22 23  2  0
 23 24  1  0
 24 25  2  0
 25 26  1  0
 25 28  1  0
 26 27  2  0
M  END
> <Name>
(Z)-5-((1-(4-fluorophenyl)-2,5-dimethyl-1H-pyrrol-3-yl)methylene)-2-(phenylamin

> <OSM_ID>
OSM-S-10

> <Sample_ID>
PMY 14-3-A, PMY 14-4, PMY 16-1

> <ChEMBL>
dep1

> <K1_IC50_nM_Avery>
360.8

> <HEK293_at_120uM>
25%

> <Kinetic_solubility_pH2_ug_per_mL>
0-1.6

> <Kinetic_solubilitiy_pH6.5_ug_per_mL>
0-1.6

> <In_vitro_CLint_uL_min_mg_protein>
15-19

> <Degradation_half_life _mins>
92-113

> <Degradation_rate_classification>
moderate

> <link>
http://malaria.ourexperiment.org/osm_procedures/7062/Preparation_of_OSMS10.html

> <3D7_IC50_nM_Avery>
176

> <Series Tag>
Series 1

$$$$
(1-(4-fluorophenyl)-2,5-dimethyl-1H-pyrrol-3-yl)methanol
  SciTegic10081310362D

 16 17  0  0  0  0            999 V2000
    1.2990   -0.7500    0.0000 C   0  0
    1.2990    0.7500    0.0000 C   0  0
    0.0000    1.5000    0.0000 C   0  0
   -1.2990    0.7500    0.0000 C   0  0
   -1.2990   -0.7500    0.0000 C   0  0
    0.0000   -1.5000    0.0000 C   0  0
   -2.5987   -1.5004    0.0000 N   0  0
    2.3383    1.3500    0.0000 F   0  0
   -3.9511   -0.8815    0.0000 C   0  0
   -4.9530   -1.9978    0.0000 C   0  0
   -4.2010   -3.2957    0.0000 C   0  0
   -2.7343   -2.9815    0.0000 C   0  0
   -1.8365   -3.7777    0.0000 C   0  0
   -4.1955    0.2933    0.0000 C   0  0
   -4.8110   -4.6641    0.0000 C   0  0
   -6.0044   -4.7897    0.0000 O   0  0
  1  2  2  0
  2  3  1  0
  3  4  2  0
  4  5  1  0
  5  6  2  0
  6  1  1  0
  5  7  1  0
  2  8  1  0
  7  9  1  0
  9 10  2  0
 10 11  1  0
 11 12  2  0
 12  7  1  0
 12 13  1  0
  9 14  1  0
 11 15  1  0
 15 16  1  0
M  END
> <Name>
(1-(4-fluorophenyl)-2,5-dimethyl-1H-pyrrol-3-yl)methanol

> <OSM_ID>
OSM-S-11

> <Sample_ID>
PMY 18-3, PMY 15-2

> <link>
http://malaria.ourexperiment.org/osm_procedures/7064/Preparation_of_OSMS11.html

> <Series Tag>
Series 1

$$$$
2,5-dimethyl-1-phenyl-1H-pyrrole-3-carboxylic acid
  SciTegic10081310362D

 16 17  0  0  0  0            999 V2000
    4.1955    0.2934    0.0000 C   0  0
    3.9511   -0.8815    0.0000 C   0  0
    4.9531   -1.9978    0.0000 C   0  0
    4.2010   -3.2956    0.0000 C   0  0
    2.7343   -2.9815    0.0000 C   0  0
    1.8365   -3.7777    0.0000 C   0  0
    2.5987   -1.5004    0.0000 N   0  0
    1.2990   -0.7500    0.0000 C   0  0
    0.0000   -1.5000    0.0000 C   0  0
   -1.2990   -0.7500    0.0000 C   0  0
   -1.2990    0.7500    0.0000 C   0  0
    0.0000    1.5000    0.0000 C   0  0
    1.2990    0.7500    0.0000 C   0  0
    4.8111   -4.6641    0.0000 C   0  0
    6.0045   -4.7897    0.0000 O   0  0
    4.1059   -5.6350    0.0000 O   0  0
  1  2  1  0
  2  7  1  0
  2  3  2  0
  3  4  1  0
  4  5  2  0
  4 14  1  0
  5  6  1  0
  5  7  1  0
  7  8  1  0
  8 13  1  0
  8  9  2  0
  9 10  1  0
 10 11  2  0
 11 12  1  0
 12 13  2  0
 14 15  2  0
 14 16  1  0
M  END
> <Name>
2,5-dimethyl-1-phenyl-1H-pyrrole-3-carboxylic acid

> <OSM_ID>
OSM-S-12

> <Sample_ID>
PMY 20-1

> <ChEMBL>
dep1

> <K1_IC50_nM_Avery>
50%@120uM

> <HEK293_at_120uM>
0%

> <link>
http://malaria.ourexperiment.org/osm_procedures/7065/Preparation_of_OSMS12.html

> <3D7_IC50_nM_Avery>
70% @ 120000

> <Series Tag>
Series 1

$$$$
2,5-dimethyl-1-(p-tolyl)-1H-pyrrole-3-carboxylic acid
  SciTegic10081310362D

 17 18  0  0  0  0            999 V2000
    2.3383   -1.3500    0.0000 C   0  0
    1.2990   -0.7500    0.0000 C   0  0
    0.0000   -1.5000    0.0000 C   0  0
   -1.2990   -0.7500    0.0000 C   0  0
   -1.2990    0.7500    0.0000 C   0  0
    0.0000    1.5000    0.0000 C   0  0
    1.2990    0.7500    0.0000 C   0  0
   -2.5987    1.5004    0.0000 N   0  0
   -3.9492    0.8772    0.0000 C   0  0
   -4.1898   -0.2984    0.0000 C   0  0
   -4.9546    1.9903    0.0000 C   0  0
   -4.2067    3.2905    0.0000 C   0  0
   -2.7390    2.9810    0.0000 C   0  0
   -1.8437    3.7801    0.0000 C   0  0
   -4.8211    4.6570    0.0000 C   0  0
   -6.0149    4.7788    0.0000 O   0  0
   -4.1190    5.6302    0.0000 O   0  0
  1  2  1  0
  2  7  1  0
  2  3  2  0
  3  4  1  0
  4  5  2  0
  5  6  1  0
  5  8  1  0
  6  7  2  0
  8 13  1  0
  8  9  1  0
  9 10  1  0
  9 11  2  0
 11 12  1  0
 12 13  2  0
 12 15  1  0
 13 14  1  0
 15 16  2  0
 15 17  1  0
M  END
> <Name>
2,5-dimethyl-1-(p-tolyl)-1H-pyrrole-3-carboxylic acid

> <OSM_ID>
OSM-S-13

> <Sample_ID>
PMY 21-1

> <ChEMBL>
dep1

> <K1_IC50_nM_Avery>
0%

> <HEK293_at_120uM>
0%

> <link>
http://malaria.ourexperiment.org/osm_procedures/7066/Preparation_of_OSMS13.html

> <3D7_IC50_nM_Avery>
70% @ 120000

> <Series Tag>
Series 1

$$$$
2,5-dimethyl-1-(4-(trifluoromethyl)phenyl)-1H-pyrrole-3-carboxylic acid
  SciTegic10081310362D

 20 21  0  0  0  0            999 V2000
    4.1955    0.2934    0.0000 C   0  0
    3.9511   -0.8815    0.0000 C   0  0
    4.9531   -1.9978    0.0000 C   0  0
    4.2010   -3.2956    0.0000 C   0  0
    2.7343   -2.9815    0.0000 C   0  0
    1.8365   -3.7777    0.0000 C   0  0
    2.5987   -1.5004    0.0000 N   0  0
    1.2990   -0.7500    0.0000 C   0  0
    0.0000   -1.5000    0.0000 C   0  0
   -1.2990   -0.7500    0.0000 C   0  0
   -1.2990    0.7500    0.0000 C   0  0
    0.0000    1.5000    0.0000 C   0  0
    1.2990    0.7500    0.0000 C   0  0
   -2.5988    1.5004    0.0000 C   0  0
   -3.6384    0.9011    0.0000 F   0  0
   -2.5984    2.7004    0.0000 F   0  0
   -3.6377    2.1009    0.0000 F   0  0
    4.8111   -4.6641    0.0000 C   0  0
    6.0045   -4.7897    0.0000 O   0  0
    4.1059   -5.6350    0.0000 O   0  0
  1  2  1  0
  2  7  1  0
  2  3  2  0
  3  4  1  0
  4  5  2  0
  4 18  1  0
  5  6  1  0
  5  7  1  0
  7  8  1  0
  8 13  1  0
  8  9  2  0
  9 10  1  0
 10 11  2  0
 11 12  1  0
 11 14  1  0
 12 13  2  0
 14 15  1  0
 14 16  1  0
 14 17  1  0
 18 19  2  0
 18 20  1  0
M  END
> <Name>
2,5-dimethyl-1-(4-(trifluoromethyl)phenyl)-1H-pyrrole-3-carboxylic acid

> <OSM_ID>
OSM-S-14

> <Sample_ID>
PMY 22-1

> <ChEMBL>
dep1

> <K1_IC50_nM_Avery>
0%

> <HEK293_at_120uM>
0%

> <link>
http://malaria.ourexperiment.org/osm_procedures/7068/Preparation_of_OSMS14.html

> <3D7_IC50_nM_Avery>
25% @ 120000

> <Series Tag>
Series 1

$$$$
2-benzamidoacetic acid
  SciTegic10081310362D

 13 13  0  0  0  0            999 V2000
    2.5973   -1.5031    0.0000 C   0  0
    2.5951   -3.0039    0.0000 N   0  0
    3.8933   -3.7570    0.0000 C   0  0
    1.2990   -0.7500    0.0000 C   0  0
    3.6375   -0.9049    0.0000 O   0  0
    3.8912   -5.2578    0.0000 C   0  0
    2.8509   -5.8560    0.0000 O   0  0
    4.9292   -5.8600    0.0000 O   0  0
    1.2990    0.7500    0.0000 C   0  0
    0.0000   -1.5000    0.0000 C   0  0
   -1.2990   -0.7500    0.0000 C   0  0
   -1.2990    0.7500    0.0000 C   0  0
    0.0000    1.5000    0.0000 C   0  0
  1  2  1  0
  2  3  1  0
  1  4  1  0
  1  5  2  0
  3  6  1  0
  6  7  1  0
  6  8  2  0
  4  9  2  0
  4 10  1  0
 10 11  2  0
 11 12  1  0
 12 13  2  0
 13  9  1  0
M  END
> <Name>
2-benzamidoacetic acid

> <OSM_ID>
OSM-S-15

> <Sample_ID>
PMY 26-1

> <link>
http://malaria.ourexperiment.org/osm_procedures/7069/Preparation_of_OSMS15.html

$$$$
N-(2-((1,5-dimethyl-3-oxo-2-phenyl-2,3-dihydro-1H-pyrazol-4-yl)amino)-2-oxoethyl)benzamide
  SciTegic10081310362D

 27 29  0  0  0  0            999 V2000
    4.6874   -4.3927    0.0000 C   0  0
    4.2010   -3.2956    0.0000 C   0  0
    4.9531   -1.9978    0.0000 C   0  0
    3.9511   -0.8815    0.0000 C   0  0
    4.1955    0.2934    0.0000 O   0  0
    2.5987   -1.5004    0.0000 N   0  0
    1.2990   -0.7500    0.0000 C   0  0
    0.0000   -1.5000    0.0000 C   0  0
   -1.2990   -0.7500    0.0000 C   0  0
   -1.2990    0.7500    0.0000 C   0  0
    0.0000    1.5000    0.0000 C   0  0
    1.2990    0.7500    0.0000 C   0  0
    2.7343   -2.9815    0.0000 N   0  0
    1.8365   -3.7777    0.0000 C   0  0
    6.4430   -1.8404    0.0000 N   0  0
    7.0537   -0.4695    0.0000 C   0  0
    8.5462   -0.3118    0.0000 C   0  0
    9.1568    1.0592    0.0000 N   0  0
   10.6493    1.2168    0.0000 C   0  0
   11.2600    2.5878    0.0000 C   0  0
   10.3760    3.7997    0.0000 C   0  0
   10.9835    5.1712    0.0000 C   0  0
   12.4750    5.3308    0.0000 C   0  0
   13.3590    4.1189    0.0000 C   0  0
   12.7515    2.7475    0.0000 C   0  0
   11.3548    0.2461    0.0000 O   0  0
    6.3481    0.5012    0.0000 O   0  0
  1  2  1  0
  2 13  1  0
  2  3  2  0
  3  4  1  0
  3 15  1  0
  4  5  2  0
  4  6  1  0
  6  7  1  0
  6 13  1  0
  7 12  1  0
  7  8  2  0
  8  9  1  0
  9 10  2  0
 10 11  1  0
 11 12  2  0
 13 14  1  0
 15 16  1  0
 16 17  1  0
 16 27  2  0
 17 18  1  0
 18 19  1  0
 19 20  1  0
 19 26  2  0
 20 25  1  0
 20 21  2  0
 21 22  1  0
 22 23  2  0
 23 24  1  0
 24 25  2  0
M  END
> <Name>
N-(2-((1,5-dimethyl-3-oxo-2-phenyl-2,3-dihydro-1H-pyrazol-4-yl)amino)-2-oxoethyl)benzamide

> <OSM_ID>
OSM-S-16

> <Sample_ID>
PMY 27-2

> <ChEMBL>
dep1

> <3D7_IC50_nM_GSK>
>5000

> <link>
http://malaria.ourexperiment.org/osm_procedures/7070/Preparation_of_OSMS16.html

> <3D7_IC50_nM_Avery>
>80000

$$$$
tert-butyl (2-((1,5-dimethyl-3-oxo-2-phenyl-2,3-dihydro-1H-pyrazol-4-yl)amino)-2-oxoethyl)carbamate
  SciTegic10081310362D

 26 27  0  0  0  0            999 V2000
    3.6391   -8.4629    0.0000 N   0  0
    4.5250   -7.2514    0.0000 C   0  0
    3.9195   -5.8781    0.0000 C   0  0
    4.8054   -4.6666    0.0000 N   0  0
    2.7265   -5.7487    0.0000 O   0  0
    4.2010   -3.2956    0.0000 C   0  0
    4.9531   -1.9978    0.0000 C   0  0
    3.9511   -0.8815    0.0000 N   0  0
    2.5987   -1.5004    0.0000 N   0  0
    2.7343   -2.9815    0.0000 C   0  0
    6.1467   -1.8742    0.0000 C   0  0
    4.1955    0.2934    0.0000 C   0  0
    1.2990   -0.7500    0.0000 C   0  0
    1.8365   -3.7777    0.0000 O   0  0
    1.2990    0.7500    0.0000 C   0  0
    0.0000    1.5000    0.0000 C   0  0
   -1.2990    0.7500    0.0000 C   0  0
   -1.2990   -0.7500    0.0000 C   0  0
    0.0000   -1.5000    0.0000 C   0  0
    3.3587  -11.0477    0.0000 O   0  0
    3.9641  -12.4210    0.0000 C   0  0
    3.2558  -13.3897    0.0000 C   0  0
    4.4487  -13.5188    0.0000 C   0  0
    5.1571  -12.5505    0.0000 C   0  0
    4.2445   -9.8362    0.0000 C   0  0
    5.4375   -9.9656    0.0000 O   0  0
  1  2  1  0
  2  3  1  0
  3  4  1  0
  3  5  2  0
  4  6  1  0
  6  7  2  0
  7  8  1  0
  8  9  1  0
  9 10  1  0
 10  6  1  0
  7 11  1  0
  8 12  1  0
  9 13  1  0
 10 14  2  0
 13 15  2  0
 15 16  1  0
 16 17  2  0
 17 18  1  0
 18 19  2  0
 19 13  1  0
  1 25  1  0
 20 21  1  0
 21 22  1  0
 21 23  1  0
 21 24  1  0
 25 26  2  0
 20 25  1  0
M  END
> <Name>
tert-butyl (2-((1,5-dimethyl-3-oxo-2-phenyl-2,3-dihydro-1H-pyrazol-4-yl)amino)-2-oxoethyl)carbamate

> <OSM_ID>
OSM-S-17

> <Sample_ID>
PMY 29-1, PMY 29-2

> <link>
http://malaria.ourexperiment.org/osm_procedures/7071/Preparation_of_OSMS17.html

$$$$
Molecule
  SciTegic10081310362D

 19 20  0  0  0  0            999 V2000
    3.8167   -8.2201    0.0000 N   0  0
    4.5250   -7.2514    0.0000 C   0  0
    3.9195   -5.8781    0.0000 C   0  0
    4.8054   -4.6666    0.0000 N   0  0
    2.7265   -5.7487    0.0000 O   0  0
    4.2010   -3.2956    0.0000 C   0  0
    4.9531   -1.9978    0.0000 C   0  0
    3.9511   -0.8815    0.0000 N   0  0
    2.5987   -1.5004    0.0000 N   0  0
    2.7343   -2.9815    0.0000 C   0  0
    6.1467   -1.8742    0.0000 C   0  0
    4.1955    0.2934    0.0000 C   0  0
    1.2990   -0.7500    0.0000 C   0  0
    1.8365   -3.7777    0.0000 O   0  0
    1.2990    0.7500    0.0000 C   0  0
    0.0000    1.5000    0.0000 C   0  0
   -1.2990    0.7500    0.0000 C   0  0
   -1.2990   -0.7500    0.0000 C   0  0
    0.0000   -1.5000    0.0000 C   0  0
  1  2  1  0
  2  3  1  0
  3  4  1  0
  3  5  2  0
  4  6  1  0
  6  7  2  0
  7  8  1  0
  8  9  1  0
  9 10  1  0
 10  6  1  0
  7 11  1  0
  8 12  1  0
  9 13  1  0
 10 14  2  0
 13 15  2  0
 15 16  1  0
 16 17  2  0
 17 18  1  0
 18 19  2  0
 19 13  1  0
M  END
> <Name>
Molecule

> <OSM_ID>
OSM-S-18

> <Sample_ID>
PMY 30-3

> <link>
http://malaria.ourexperiment.org/osm_procedures/7072/Preparation_of_OSMS18.html

$$$$
N-(2-amino-2-oxoethyl)-1-(4-fluorophenyl)-2,5-dimethyl-1H-pyrrole-3-carboxamide
  SciTegic10081310362D

 21 22  0  0  0  0            999 V2000
    4.1955    0.2934    0.0000 C   0  0
    3.9511   -0.8815    0.0000 C   0  0
    4.9531   -1.9978    0.0000 C   0  0
    4.2010   -3.2956    0.0000 C   0  0
    2.7343   -2.9815    0.0000 C   0  0
    1.8365   -3.7777    0.0000 C   0  0
    2.5987   -1.5004    0.0000 N   0  0
    1.2990   -0.7500    0.0000 C   0  0
    0.0000   -1.5000    0.0000 C   0  0
   -1.2990   -0.7500    0.0000 C   0  0
   -1.2990    0.7500    0.0000 C   0  0
    0.0000    1.5000    0.0000 C   0  0
    1.2990    0.7500    0.0000 C   0  0
   -2.3383    1.3500    0.0000 F   0  0
    4.8111   -4.6641    0.0000 C   0  0
    6.3036   -4.8212    0.0000 N   0  0
    6.9148   -6.1919    0.0000 C   0  0
    8.4073   -6.3490    0.0000 C   0  0
    9.1125   -5.3781    0.0000 N   0  0
    8.8960   -7.4450    0.0000 O   0  0
    4.1059   -5.6350    0.0000 O   0  0
  1  2  1  0
  2  7  1  0
  2  3  2  0
  3  4  1  0
  4  5  2  0
  4 15  1  0
  5  6  1  0
  5  7  1  0
  7  8  1  0
  8 13  1  0
  8  9  2  0
  9 10  1  0
 10 11  2  0
 11 12  1  0
 11 14  1  0
 12 13  2  0
 15 16  1  0
 15 21  2  0
 16 17  1  0
 17 18  1  0
 18 19  1  0
 18 20  2  0
M  END
> <Name>
N-(2-amino-2-oxoethyl)-1-(4-fluorophenyl)-2,5-dimethyl-1H-pyrrole-3-carboxamide

> <OSM_ID>
OSM-S-19

> <Sample_ID>
PMY 31-5

> <ChEMBL>
dep1

> <3D7_IC50_nM_Ralph>
>1000

> <3D7_IC50_nM_GSK>
>5000

> <link>
http://malaria.ourexperiment.org/osm_procedures/7073/Preparation_of_OSMS19.html

> <3D7_IC50_nM_Avery>
25-80% @ 80000

> <Series Tag>
Series 1

$$$$
1-(4-fluorophenyl)-2,5-dimethyl-1H-pyrrole-3-carbonyl chloride
  SciTegic10081310362D

 17 18  0  0  0  0            999 V2000
    1.2990   -0.7500    0.0000 C   0  0
    1.2990    0.7500    0.0000 C   0  0
    0.0000    1.5000    0.0000 C   0  0
   -1.2990    0.7500    0.0000 C   0  0
   -1.2990   -0.7500    0.0000 C   0  0
    0.0000   -1.5000    0.0000 C   0  0
   -2.5987   -1.5004    0.0000 N   0  0
    2.3383    1.3500    0.0000 F   0  0
   -3.9511   -0.8815    0.0000 C   0  0
   -4.9530   -1.9978    0.0000 C   0  0
   -4.2010   -3.2957    0.0000 C   0  0
   -2.7343   -2.9815    0.0000 C   0  0
   -4.8110   -4.6641    0.0000 C   0  0
   -6.0044   -4.7897    0.0000 O   0  0
   -4.1059   -5.6350    0.0000 Cl  0  0
   -1.8365   -3.7777    0.0000 C   0  0
   -4.1955    0.2933    0.0000 C   0  0
  1  2  2  0
  2  3  1  0
  3  4  2  0
  4  5  1  0
  5  6  2  0
  6  1  1  0
  5  7  1  0
  2  8  1  0
  7  9  1  0
  9 10  2  0
 10 11  1  0
 11 12  2  0
 12  7  1  0
 11 13  1  0
 13 14  2  0
 13 15  1  0
 12 16  1  0
  9 17  1  0
M  END
> <Name>
1-(4-fluorophenyl)-2,5-dimethyl-1H-pyrrole-3-carbonyl chloride

> <OSM_ID>
OSM-S-20

> <Sample_ID>
PMY 32-3

> <link>
http://malaria.ourexperiment.org/osm_procedures/7077/Preparation_of_OSMS20.html

> <Series Tag>
Series 1

$$$$
N-(2-((1,5-dimethyl-3-oxo-2-phenyl-2,3-dihydro-1H-pyrazol-4-yl)amino)-2-oxoethyl)-1-(4-fluorophenyl)-2,5-dimethyl-1H-pyrrole-3-carboxamide
  SciTegic10081310362D

 35 38  0  0  0  0            999 V2000
    1.2990   -0.7500    0.0000 C   0  0
    1.2990    0.7500    0.0000 C   0  0
    0.0000    1.5000    0.0000 C   0  0
   -1.2990    0.7500    0.0000 C   0  0
   -1.2990   -0.7500    0.0000 C   0  0
    0.0000   -1.5000    0.0000 C   0  0
   -2.5987   -1.5004    0.0000 N   0  0
    2.3383    1.3500    0.0000 F   0  0
   -3.9511   -0.8815    0.0000 C   0  0
   -4.9530   -1.9978    0.0000 C   0  0
   -4.2010   -3.2957    0.0000 C   0  0
   -2.7343   -2.9815    0.0000 C   0  0
   -1.8365   -3.7777    0.0000 C   0  0
   -4.1955    0.2933    0.0000 C   0  0
   -4.8110   -4.6641    0.0000 C   0  0
   -4.1059   -5.6350    0.0000 O   0  0
   -6.3036   -4.8212    0.0000 N   0  0
   -6.9147   -6.1920    0.0000 C   0  0
   -8.4073   -6.3491    0.0000 C   0  0
   -9.1125   -5.3781    0.0000 O   0  0
   -9.0184   -7.7198    0.0000 N   0  0
  -10.5110   -7.8769    0.0000 C   0  0
  -11.2417   -9.1723    0.0000 C   0  0
  -12.7084   -8.8576    0.0000 N   0  0
  -12.8623   -7.3655    0.0000 N   0  0
  -11.4908   -6.7581    0.0000 C   0  0
  -10.7492  -10.2666    0.0000 C   0  0
  -13.6017   -9.6589    0.0000 C   0  0
  -14.1606   -6.6127    0.0000 C   0  0
  -11.2321   -5.5863    0.0000 O   0  0
  -15.5087   -7.2589    0.0000 C   0  0
  -16.7460   -6.4109    0.0000 C   0  0
  -16.6303   -4.9154    0.0000 C   0  0
  -15.2773   -4.2678    0.0000 C   0  0
  -14.0400   -5.1158    0.0000 C   0  0
  1  2  2  0
  2  3  1  0
  3  4  2  0
  4  5  1  0
  5  6  2  0
  6  1  1  0
  5  7  1  0
  2  8  1  0
  7  9  1  0
  9 10  2  0
 10 11  1  0
 11 12  2  0
 12  7  1  0
 12 13  1  0
  9 14  1  0
 11 15  1  0
 15 16  2  0
 15 17  1  0
 17 18  1  0
 18 19  1  0
 19 20  2  0
 19 21  1  0
 21 22  1  0
 22 23  2  0
 23 24  1  0
 24 25  1  0
 25 26  1  0
 26 22  1  0
 23 27  1  0
 24 28  1  0
 25 29  1  0
 26 30  2  0
 29 31  2  0
 31 32  1  0
 32 33  2  0
 33 34  1  0
 34 35  2  0
 35 29  1  0
M  END
> <Name>
N-(2-((1,5-dimethyl-3-oxo-2-phenyl-2,3-dihydro-1H-pyrazol-4-yl)amino)-2-oxoethyl)-1-(4-fluorophenyl)-2,5-dimethyl-1H-pyrrole-3-carboxamide

> <OSM_ID>
OSM-S-21

> <Sample_ID>
PMY 34-1

> <ChEMBL>
dep1

> <3D7_IC50_nM_Ralph>
>1000

> <3D7_IC50_nM_GSK>
>5000

> <link>
http://malaria.ourexperiment.org/osm_procedures/7078/Preparation_of_OSMS21.html

> <3D7_IC50_nM_Avery>
31000

> <Series Tag>
Series 1

$$$$
1-(4-fluorophenyl)-2,5-dimethyl-1H-pyrrole-3-carboxamide
  SciTegic10081310362D

 17 18  0  0  0  0            999 V2000
    1.2990   -0.7500    0.0000 C   0  0
    1.2990    0.7500    0.0000 C   0  0
    0.0000    1.5000    0.0000 C   0  0
   -1.2990    0.7500    0.0000 C   0  0
   -1.2990   -0.7500    0.0000 C   0  0
    0.0000   -1.5000    0.0000 C   0  0
   -2.5987   -1.5004    0.0000 N   0  0
    2.3383    1.3500    0.0000 F   0  0
   -3.9511   -0.8815    0.0000 C   0  0
   -4.9530   -1.9978    0.0000 C   0  0
   -4.2010   -3.2957    0.0000 C   0  0
   -2.7343   -2.9815    0.0000 C   0  0
   -1.8365   -3.7777    0.0000 C   0  0
   -4.1955    0.2933    0.0000 C   0  0
   -4.8110   -4.6641    0.0000 C   0  0
   -6.0044   -4.7897    0.0000 O   0  0
   -4.1059   -5.6350    0.0000 N   0  0
  1  2  2  0
  2  3  1  0
  3  4  2  0
  4  5  1  0
  5  6  2  0
  6  1  1  0
  5  7  1  0
  2  8  1  0
  7  9  1  0
  9 10  2  0
 10 11  1  0
 11 12  2  0
 12  7  1  0
 12 13  1  0
  9 14  1  0
 11 15  1  0
 15 16  2  0
 15 17  1  0
M  END
> <Name>
1-(4-fluorophenyl)-2,5-dimethyl-1H-pyrrole-3-carboxamide

> <OSM_ID>
OSM-S-22

> <Sample_ID>
PMY 42-1

> <link>
http://malaria.ourexperiment.org/osm_procedures/7079/Preparation_of_OSMS22.html

> <Series Tag>
Series 1

$$$$
Molecule
  SciTegic10081310362D

 17 18  0  0  0  0            999 V2000
    1.2990   -0.7500    0.0000 C   0  0
    1.2990    0.7500    0.0000 C   0  0
    0.0000    1.5000    0.0000 C   0  0
   -1.2990    0.7500    0.0000 C   0  0
   -1.2990   -0.7500    0.0000 C   0  0
    0.0000   -1.5000    0.0000 C   0  0
   -2.5987   -1.5004    0.0000 N   0  0
   -2.7343   -2.9815    0.0000 N   0  0
   -4.2010   -3.2957    0.0000 C   0  0
   -4.9530   -1.9978    0.0000 C   0  0
   -3.9511   -0.8815    0.0000 C   0  0
   -4.1955    0.2933    0.0000 C   0  0
   -6.4437   -1.8467    0.0000 C   0  0
   -6.9354   -0.7521    0.0000 O   0  0
   -7.3221   -3.0635    0.0000 O   0  0
   -8.8153   -2.9121    0.0000 C   0  0
   -9.5177   -3.8851    0.0000 C   0  0
  1  2  2  0
  2  3  1  0
  3  4  2  0
  4  5  1  0
  5  6  2  0
  6  1  1  0
  5  7  1  0
  7  8  1  0
  8  9  2  0
  9 10  1  0
 10 11  2  0
 11  7  1  0
 11 12  1  0
 10 13  1  0
 13 14  2  0
 13 15  1  0
 15 16  1  0
 16 17  1  0
M  END
> <Name>
Molecule

> <OSM_ID>
OSM-S-23

> <Sample_ID>
PMY 43-1

> <link>
http://malaria.ourexperiment.org/osm_procedures/7080/Preparation_of_OSMS23.html

> <Series Tag>
Series 1

$$$$
Molecule
  SciTegic10081310362D

 15 16  0  0  0  0            999 V2000
    1.2990   -0.7500    0.0000 C   0  0
    1.2990    0.7500    0.0000 C   0  0
    0.0000    1.5000    0.0000 C   0  0
   -1.2990    0.7500    0.0000 C   0  0
   -1.2990   -0.7500    0.0000 C   0  0
    0.0000   -1.5000    0.0000 C   0  0
   -2.5987   -1.5004    0.0000 N   0  0
   -2.7343   -2.9815    0.0000 N   0  0
   -4.2010   -3.2957    0.0000 C   0  0
   -4.9530   -1.9978    0.0000 C   0  0
   -3.9511   -0.8815    0.0000 C   0  0
   -4.1955    0.2933    0.0000 C   0  0
   -6.4437   -1.8467    0.0000 C   0  0
   -7.1461   -2.8196    0.0000 O   0  0
   -6.9354   -0.7521    0.0000 O   0  0
  1  2  2  0
  2  3  1  0
  3  4  2  0
  4  5  1  0
  5  6  2  0
  6  1  1  0
  5  7  1  0
  7  8  1  0
  8  9  2  0
  9 10  1  0
 10 11  2  0
 11  7  1  0
 11 12  1  0
 10 13  1  0
 13 14  2  0
 13 15  1  0
M  END
> <Name>
Molecule

> <OSM_ID>
OSM-S-24

> <Sample_ID>
PMY 44-1

> <link>
http://malaria.ourexperiment.org/osm_procedures/7081/Preparation_of_OSMS24.html

> <Series Tag>
Series 1

$$$$
Molecule
  SciTegic10081310362D

 13 14  0  0  0  0            999 V2000
    1.2990   -0.7500    0.0000 C   0  0
    1.2990    0.7500    0.0000 C   0  0
    0.0000    1.5000    0.0000 C   0  0
   -1.2990    0.7500    0.0000 C   0  0
   -1.2990   -0.7500    0.0000 C   0  0
    0.0000   -1.5000    0.0000 C   0  0
   -2.5987   -1.5004    0.0000 N   0  0
   -3.9511   -0.8815    0.0000 C   0  0
   -4.9530   -1.9978    0.0000 C   0  0
   -4.2010   -3.2957    0.0000 C   0  0
   -2.7343   -2.9815    0.0000 C   0  0
   -1.8365   -3.7777    0.0000 C   0  0
   -4.1955    0.2933    0.0000 C   0  0
  1  2  2  0
  2  3  1  0
  3  4  2  0
  4  5  1  0
  5  6  2  0
  6  1  1  0
  5  7  1  0
  7  8  1  0
  8  9  2  0
  9 10  1  0
 10 11  2  0
 11  7  1  0
 11 12  1  0
  8 13  1  0
M  END
> <Name>
Molecule

> <OSM_ID>
OSM-S-25

> <Sample_ID>
LMW 1-1

> <link>
http://malaria.ourexperiment.org/osm_procedures/7082/Preparation_of_OSMS25.html

> <Series Tag>
Series 1

$$$$
Molecule
  SciTegic10081310362D

 14 15  0  0  0  0            999 V2000
    1.2990   -0.7500    0.0000 C   0  0
    1.2990    0.7500    0.0000 C   0  0
    0.0000    1.5000    0.0000 C   0  0
   -1.2990    0.7500    0.0000 C   0  0
   -1.2990   -0.7500    0.0000 C   0  0
    0.0000   -1.5000    0.0000 C   0  0
   -2.5987   -1.5004    0.0000 N   0  0
   -3.9511   -0.8815    0.0000 C   0  0
   -4.9530   -1.9978    0.0000 C   0  0
   -4.2010   -3.2957    0.0000 C   0  0
   -2.7343   -2.9815    0.0000 C   0  0
   -1.8365   -3.7777    0.0000 C   0  0
   -4.1955    0.2933    0.0000 C   0  0
    2.3383    1.3500    0.0000 C   0  0
  1  2  2  0
  2  3  1  0
  3  4  2  0
  4  5  1  0
  5  6  2  0
  6  1  1  0
  5  7  1  0
  7  8  1  0
  8  9  2  0
  9 10  1  0
 10 11  2  0
 11  7  1  0
 11 12  1  0
  8 13  1  0
  2 14  1  0
M  END
> <Name>
Molecule

> <OSM_ID>
OSM-S-26

> <Sample_ID>
LMW 2-1

> <link>
http://malaria.ourexperiment.org/osm_procedures/7083/Preparation_of_OSMS26.html

> <Series Tag>
Series 1

$$$$
Molecule
  SciTegic10081310362D

 17 18  0  0  0  0            999 V2000
    1.2990   -0.7500    0.0000 C   0  0
    1.2990    0.7500    0.0000 C   0  0
    0.0000    1.5000    0.0000 C   0  0
   -1.2990    0.7500    0.0000 C   0  0
   -1.2990   -0.7500    0.0000 C   0  0
    0.0000   -1.5000    0.0000 C   0  0
   -2.5987   -1.5004    0.0000 N   0  0
   -3.9511   -0.8815    0.0000 C   0  0
   -4.9530   -1.9978    0.0000 C   0  0
   -4.2010   -3.2957    0.0000 C   0  0
   -2.7343   -2.9815    0.0000 C   0  0
   -1.8365   -3.7777    0.0000 C   0  0
   -4.1955    0.2933    0.0000 C   0  0
    2.5988    1.5004    0.0000 C   0  0
    3.6384    0.9011    0.0000 F   0  0
    2.5984    2.7004    0.0000 F   0  0
    3.6377    2.1009    0.0000 F   0  0
  1  2  2  0
  2  3  1  0
  3  4  2  0
  4  5  1  0
  5  6  2  0
  6  1  1  0
  5  7  1  0
  7  8  1  0
  8  9  2  0
  9 10  1  0
 10 11  2  0
 11  7  1  0
 11 12  1  0
  8 13  1  0
  2 14  1  0
 14 15  1  0
 14 16  1  0
 14 17  1  0
M  END
> <Name>
Molecule

> <OSM_ID>
OSM-S-27

> <Sample_ID>
LMW 3-1

> <link>
http://malaria.ourexperiment.org/osm_procedures/7084/Preparation_of_OSMS27.html

> <Series Tag>
Series 1

$$$$
2,5-dimethyl-1-phenyl-1H-pyrrole-3-carbaldehyde
  SciTegic10081310362D

 15 16  0  0  0  0            999 V2000
    4.1955    0.2934    0.0000 C   0  0
    3.9511   -0.8815    0.0000 C   0  0
    4.9531   -1.9978    0.0000 C   0  0
    4.2010   -3.2956    0.0000 C   0  0
    4.8111   -4.6641    0.0000 C   0  0
    6.0045   -4.7897    0.0000 O   0  0
    2.7343   -2.9815    0.0000 C   0  0
    1.8365   -3.7777    0.0000 C   0  0
    2.5987   -1.5004    0.0000 N   0  0
    1.2990   -0.7500    0.0000 C   0  0
    0.0000   -1.5000    0.0000 C   0  0
   -1.2990   -0.7500    0.0000 C   0  0
   -1.2990    0.7500    0.0000 C   0  0
    0.0000    1.5000    0.0000 C   0  0
    1.2990    0.7500    0.0000 C   0  0
  1  2  1  0
  2  9  1  0
  2  3  2  0
  3  4  1  0
  4  5  1  0
  4  7  2  0
  5  6  2  0
  7  8  1  0
  7  9  1  0
  9 10  1  0
 10 15  1  0
 10 11  2  0
 11 12  1  0
 12 13  2  0
 13 14  1  0
 14 15  2  0
M  END
> <Name>
2,5-dimethyl-1-phenyl-1H-pyrrole-3-carbaldehyde

> <OSM_ID>
OSM-S-28

> <Sample_ID>
LMW 4-1

> <ChEMBL>
dep1

> <K1_IC50_nM_Avery>
80%@120uM

> <HEK293_at_120uM>
25%

> <link>
http://malaria.ourexperiment.org/osm_procedures/7085/Preparation_of_OSMS28.html

> <3D7_IC50_nM_Avery>
55% @ 120000

> <Series Tag>
Series 1

$$$$
2,5-dimethyl-1-(p-tolyl)-1H-pyrrole-3-carbaldehyde
  SciTegic10081310362D

 16 17  0  0  0  0            999 V2000
    2.3383   -1.3500    0.0000 C   0  0
    1.2990   -0.7500    0.0000 C   0  0
    0.0000   -1.5000    0.0000 C   0  0
   -1.2990   -0.7500    0.0000 C   0  0
   -1.2990    0.7500    0.0000 C   0  0
    0.0000    1.5000    0.0000 C   0  0
    1.2990    0.7500    0.0000 C   0  0
   -2.5987    1.5004    0.0000 N   0  0
   -3.9492    0.8772    0.0000 C   0  0
   -4.1898   -0.2984    0.0000 C   0  0
   -4.9546    1.9903    0.0000 C   0  0
   -4.2067    3.2905    0.0000 C   0  0
   -4.8211    4.6570    0.0000 C   0  0
   -6.0149    4.7788    0.0000 O   0  0
   -2.7390    2.9810    0.0000 C   0  0
   -1.8437    3.7801    0.0000 C   0  0
  1  2  1  0
  2  7  1  0
  2  3  2  0
  3  4  1  0
  4  5  2  0
  5  6  1  0
  5  8  1  0
  6  7  2  0
  8 15  1  0
  8  9  1  0
  9 10  1  0
  9 11  2  0
 11 12  1  0
 12 13  1  0
 12 15  2  0
 13 14  2  0
 15 16  1  0
M  END
> <Name>
2,5-dimethyl-1-(p-tolyl)-1H-pyrrole-3-carbaldehyde

> <OSM_ID>
OSM-S-29

> <Sample_ID>
LMW 5-1

> <ChEMBL>
dep1

> <K1_IC50_nM_Avery>
Hook over

> <HEK293_at_120uM>
Hook over

> <link>
http://malaria.ourexperiment.org/osm_procedures/7086/Preparation_of_OSMS29.html

> <3D7_IC50_nM_Avery>
could not determine

> <Series Tag>
Series 1

$$$$
ethyl 2,5-dimethyl-1-(p-tolyl)-1H-pyrrole-3-carboxylate
  SciTegic10081310362D

 19 20  0  0  0  0            999 V2000
    8.1082   -6.3175    0.0000 C   0  0
    6.9148   -6.1919    0.0000 C   0  0
    6.3037   -4.8211    0.0000 O   0  0
    4.8111   -4.6641    0.0000 C   0  0
    4.1059   -5.6350    0.0000 O   0  0
    4.2010   -3.2956    0.0000 C   0  0
    4.9531   -1.9978    0.0000 C   0  0
    3.9511   -0.8815    0.0000 C   0  0
    4.1955    0.2934    0.0000 C   0  0
    2.5987   -1.5004    0.0000 N   0  0
    2.7343   -2.9815    0.0000 C   0  0
    1.8365   -3.7777    0.0000 C   0  0
    1.2990   -0.7500    0.0000 C   0  0
    0.0000   -1.5000    0.0000 C   0  0
   -1.2990   -0.7500    0.0000 C   0  0
   -1.2990    0.7500    0.0000 C   0  0
   -2.3383    1.3500    0.0000 C   0  0
    0.0000    1.5000    0.0000 C   0  0
    1.2990    0.7500    0.0000 C   0  0
  1  2  1  0
  2  3  1  0
  3  4  1  0
  4  5  2  0
  4  6  1  0
  6 11  2  0
  6  7  1  0
  7  8  2  0
  8  9  1  0
  8 10  1  0
 10 11  1  0
 10 13  1  0
 11 12  1  0
 13 19  1  0
 13 14  2  0
 14 15  1  0
 15 16  2  0
 16 17  1  0
 16 18  1  0
 18 19  2  0
M  END
> <Name>
ethyl 2,5-dimethyl-1-(p-tolyl)-1H-pyrrole-3-carboxylate

> <OSM_ID>
OSM-S-30

> <Sample_ID>
LMW 6-1

> <ChEMBL>
dep1

> <K1_IC50_nM_Avery>
50%@120uM

> <HEK293_at_120uM>
0%

> <link>
http://malaria.ourexperiment.org/osm_procedures/7087/Preparation_of_OSMS30.html

> <3D7_IC50_nM_Avery>
85% @ 120000

> <Series Tag>
Series 1

$$$$
ethyl 2,5-dimethyl-1-phenyl-1H-pyrrole-3-carboxylate
  SciTegic10081310362D

 18 19  0  0  0  0            999 V2000
    8.1082   -6.3175    0.0000 C   0  0
    6.9148   -6.1919    0.0000 C   0  0
    6.3037   -4.8211    0.0000 O   0  0
    4.8111   -4.6641    0.0000 C   0  0
    4.1059   -5.6350    0.0000 O   0  0
    4.2010   -3.2956    0.0000 C   0  0
    4.9531   -1.9978    0.0000 C   0  0
    3.9511   -0.8815    0.0000 C   0  0
    4.1955    0.2934    0.0000 C   0  0
    2.5987   -1.5004    0.0000 N   0  0
    2.7343   -2.9815    0.0000 C   0  0
    1.8365   -3.7777    0.0000 C   0  0
    1.2990   -0.7500    0.0000 C   0  0
    0.0000   -1.5000    0.0000 C   0  0
   -1.2990   -0.7500    0.0000 C   0  0
   -1.2990    0.7500    0.0000 C   0  0
    0.0000    1.5000    0.0000 C   0  0
    1.2990    0.7500    0.0000 C   0  0
  1  2  1  0
  2  3  1  0
  3  4  1  0
  4  5  2  0
  4  6  1  0
  6 11  2  0
  6  7  1  0
  7  8  2  0
  8  9  1  0
  8 10  1  0
 10 11  1  0
 10 13  1  0
 11 12  1  0
 13 18  1  0
 13 14  2  0
 14 15  1  0
 15 16  2  0
 16 17  1  0
 17 18  2  0
M  END
> <Name>
ethyl 2,5-dimethyl-1-phenyl-1H-pyrrole-3-carboxylate

> <OSM_ID>
OSM-S-31

> <Sample_ID>
LMW 8-1

> <ChEMBL>
dep1

> <K1_IC50_nM_Avery>
0%

> <HEK293_at_120uM>
0%

> <link>
http://malaria.ourexperiment.org/osm_procedures/7088/Preparation_of_OSMS31.html

> <3D7_IC50_nM_Avery>
80% @ 120000

> <Series Tag>
Series 1

$$$$
ethyl 2,5-dimethyl-1-(4-(trifluoromethyl)phenyl)-1H-pyrrole-3-carboxylate
  SciTegic10081310362D

 22 23  0  0  0  0            999 V2000
    8.1082   -6.3175    0.0000 C   0  0
    6.9148   -6.1919    0.0000 C   0  0
    6.3037   -4.8211    0.0000 O   0  0
    4.8111   -4.6641    0.0000 C   0  0
    4.1059   -5.6350    0.0000 O   0  0
    4.2010   -3.2956    0.0000 C   0  0
    4.9531   -1.9978    0.0000 C   0  0
    3.9511   -0.8815    0.0000 C   0  0
    4.1955    0.2934    0.0000 C   0  0
    2.5987   -1.5004    0.0000 N   0  0
    2.7343   -2.9815    0.0000 C   0  0
    1.8365   -3.7777    0.0000 C   0  0
    1.2990   -0.7500    0.0000 C   0  0
    0.0000   -1.5000    0.0000 C   0  0
   -1.2990   -0.7500    0.0000 C   0  0
   -1.2990    0.7500    0.0000 C   0  0
    0.0000    1.5000    0.0000 C   0  0
    1.2990    0.7500    0.0000 C   0  0
   -2.5988    1.5004    0.0000 C   0  0
   -3.6384    0.9011    0.0000 F   0  0
   -2.5984    2.7004    0.0000 F   0  0
   -3.6377    2.1009    0.0000 F   0  0
  1  2  1  0
  2  3  1  0
  3  4  1  0
  4  5  2  0
  4  6  1  0
  6 11  2  0
  6  7  1  0
  7  8  2  0
  8  9  1  0
  8 10  1  0
 10 11  1  0
 10 13  1  0
 11 12  1  0
 13 18  1  0
 13 14  2  0
 14 15  1  0
 15 16  2  0
 16 17  1  0
 16 19  1  0
 17 18  2  0
 19 20  1  0
 19 21  1  0
 19 22  1  0
M  END
> <Name>
ethyl 2,5-dimethyl-1-(4-(trifluoromethyl)phenyl)-1H-pyrrole-3-carboxylate

> <OSM_ID>
OSM-S-32

> <Sample_ID>
LMW 9-1

> <ChEMBL>
dep1

> <K1_IC50_nM_Avery>
20%@120uM

> <HEK293_at_120uM>
75%

> <link>
http://malaria.ourexperiment.org/osm_procedures/7089/Preparation_of_OSMS32.html

> <3D7_IC50_nM_Avery>
85% @ 120000

> <Series Tag>
Series 1

$$$$
1-(3,5-bis(trifluoromethyl)phenyl)-2,5-dimethyl-1H-pyrrole
  SciTegic10081310362D

 21 22  0  0  0  0            999 V2000
    1.2990   -0.7500    0.0000 C   0  0
    1.2990    0.7500    0.0000 C   0  0
    0.0000    1.5000    0.0000 C   0  0
   -1.2990    0.7500    0.0000 C   0  0
   -1.2990   -0.7500    0.0000 C   0  0
    0.0000   -1.5000    0.0000 C   0  0
   -2.5987   -1.5004    0.0000 N   0  0
   -3.9511   -0.8815    0.0000 C   0  0
   -4.9530   -1.9978    0.0000 C   0  0
   -4.2010   -3.2957    0.0000 C   0  0
   -2.7343   -2.9815    0.0000 C   0  0
   -1.8365   -3.7777    0.0000 C   0  0
   -4.1955    0.2933    0.0000 C   0  0
    2.5988   -1.5004    0.0000 C   0  0
    0.0000    3.0008    0.0000 C   0  0
    3.6384   -0.9011    0.0000 F   0  0
    2.5984   -2.7004    0.0000 F   0  0
    3.6377   -2.1009    0.0000 F   0  0
    1.0388    3.6015    0.0000 F   0  0
   -1.0394    3.6005    0.0000 F   0  0
   -0.0006    4.2008    0.0000 F   0  0
  1  2  2  0
  2  3  1  0
  3  4  2  0
  4  5  1  0
  5  6  2  0
  6  1  1  0
  5  7  1  0
  7  8  1  0
  8  9  2  0
  9 10  1  0
 10 11  2  0
 11  7  1  0
 11 12  1  0
  8 13  1  0
  1 14  1  0
  3 15  1  0
 14 16  1  0
 14 17  1  0
 14 18  1  0
 15 19  1  0
 15 20  1  0
 15 21  1  0
M  END
> <Name>
1-(3,5-bis(trifluoromethyl)phenyl)-2,5-dimethyl-1H-pyrrole

> <OSM_ID>
OSM-S-33

> <Sample_ID>
ZYH 1-1

> <link>
http://malaria.ourexperiment.org/osm_procedures/7090/Preparation_of_OSMS33.html

> <Series Tag>
Series 1

$$$$
Molecule
  SciTegic10081310362D

 19 20  0  0  0  0            999 V2000
    1.2990   -0.7500    0.0000 C   0  0
    1.2990    0.7500    0.0000 C   0  0
    0.0000    1.5000    0.0000 C   0  0
   -1.2990    0.7500    0.0000 C   0  0
   -1.2990   -0.7500    0.0000 C   0  0
    0.0000   -1.5000    0.0000 C   0  0
   -2.5987   -1.5004    0.0000 N   0  0
   -3.9511   -0.8815    0.0000 C   0  0
   -4.9530   -1.9978    0.0000 C   0  0
   -4.2010   -3.2957    0.0000 C   0  0
   -2.7343   -2.9815    0.0000 C   0  0
   -1.8365   -3.7777    0.0000 C   0  0
   -4.1955    0.2933    0.0000 C   0  0
    2.5988    1.5004    0.0000 C   0  0
    3.6384    0.9011    0.0000 F   0  0
    2.5984    2.7004    0.0000 F   0  0
    3.6377    2.1009    0.0000 F   0  0
   -4.8110   -4.6641    0.0000 C   0  0
   -6.0044   -4.7897    0.0000 O   0  0
  1  2  2  0
  2  3  1  0
  3  4  2  0
  4  5  1  0
  5  6  2  0
  6  1  1  0
  5  7  1  0
  7  8  1  0
  8  9  2  0
  9 10  1  0
 10 11  2  0
 11  7  1  0
 11 12  1  0
  8 13  1  0
 14 15  1  0
 14 16  1  0
 14 17  1  0
  2 14  1  0
 10 18  1  0
 18 19  2  0
M  END
> <Name>
Molecule

> <OSM_ID>
OSM-S-34

> <Sample_ID>
ZYH 2-2

> <link>
http://malaria.ourexperiment.org/osm_procedures/7091/Preparation_of_OSMS34.html

> <Series Tag>
Series 1

$$$$
(2Z,5Z)-5-((2,5-dimethyl-1-phenyl-1H-pyrrol-3-yl)methylene)-2-(phenylimino)thiazolidin-4-one
  SciTegic10081310362D

 27 30  0  0  0  0            999 V2000
   -3.6167   -4.5214    0.0000 C   0  0
   -2.7306   -5.3305    0.0000 C   0  0
   -1.2612   -5.0289    0.0000 C   0  0
   -0.5420   -6.3307    0.0000 C   0  0
    0.9498   -6.4949    0.0000 C   0  0
    1.8372   -5.2877    0.0000 C   0  0
    3.3372   -5.2929    0.0000 C   0  0
    3.8056   -3.8679    0.0000 N   0  0
    2.5951   -3.0039    0.0000 C   0  0
    2.5973   -1.5031    0.0000 N   0  0
    1.2990   -0.7500    0.0000 C   0  0
    0.0000   -1.5000    0.0000 C   0  0
   -1.2990   -0.7500    0.0000 C   0  0
   -1.2990    0.7500    0.0000 C   0  0
    0.0000    1.5000    0.0000 C   0  0
    1.2990    0.7500    0.0000 C   0  0
    1.3786   -3.8595    0.0000 S   0  0
    4.0391   -6.2662    0.0000 O   0  0
   -1.5317   -7.4408    0.0000 C   0  0
   -1.2834   -8.6149    0.0000 C   0  0
   -2.8978   -6.8212    0.0000 N   0  0
   -4.2026   -7.5625    0.0000 C   0  0
   -4.0953   -9.0604    0.0000 C   0  0
   -5.3401   -9.8974    0.0000 C   0  0
   -6.6873   -9.2378    0.0000 C   0  0
   -6.7898   -7.7413    0.0000 C   0  0
   -5.5450   -6.9044    0.0000 C   0  0
  1  2  1  0
  2 21  1  0
  2  3  2  0
  3  4  1  0
  4  5  1  0
  4 19  2  0
  5  6  2  0
  6 17  1  0
  6  7  1  0
  7  8  1  0
  7 18  2  0
  8  9  1  0
  9 10  2  0
  9 17  1  0
 10 11  1  0
 11 16  1  0
 11 12  2  0
 12 13  1  0
 13 14  2  0
 14 15  1  0
 15 16  2  0
 19 20  1  0
 19 21  1  0
 21 22  1  0
 22 27  1  0
 22 23  2  0
 23 24  1  0
 24 25  2  0
 25 26  1  0
 26 27  2  0
M  END
> <Name>
(2Z,5Z)-5-((2,5-dimethyl-1-phenyl-1H-pyrrol-3-yl)methylene)-2-(phenylimino)thiazolidin-4-one

> <OSM_ID>
OSM-S-35

> <Sample_ID>
ZYH 3-1, PMY 47-1, MNR93-1

> <ChEMBL>
dep1

> <3D7_IC50_nM_Ralph>
10.9

> <3D7_IC50_nM_GSK>
36

> <hERG_IC50_uM>
>33

> <In_vivo_mouse_ P.Berghei_ora_50mg_per_kg>
neg

> <link>
http://malaria.ourexperiment.org/osm_procedures/7092/Preparation_of_OSMS35.html

> <3D7_IC50_nM_Avery>
26

> <Series Tag>
Series 1

$$$$
1-(3,5-bis(trifluoromethyl)phenyl)-2,5-dimethyl-1H-pyrrole-3-carbaldehyde
  SciTegic10081310362D

 23 24  0  0  0  0            999 V2000
    1.2990   -0.7500    0.0000 C   0  0
    1.2990    0.7500    0.0000 C   0  0
    0.0000    1.5000    0.0000 C   0  0
   -1.2990    0.7500    0.0000 C   0  0
   -1.2990   -0.7500    0.0000 C   0  0
    0.0000   -1.5000    0.0000 C   0  0
   -2.5987   -1.5004    0.0000 N   0  0
   -3.9511   -0.8815    0.0000 C   0  0
   -4.9530   -1.9978    0.0000 C   0  0
   -4.2010   -3.2957    0.0000 C   0  0
   -2.7343   -2.9815    0.0000 C   0  0
   -1.8365   -3.7777    0.0000 C   0  0
   -4.1955    0.2933    0.0000 C   0  0
    2.5988   -1.5004    0.0000 C   0  0
    3.6384   -0.9011    0.0000 F   0  0
    2.5984   -2.7004    0.0000 F   0  0
    3.6377   -2.1009    0.0000 F   0  0
   -4.8110   -4.6641    0.0000 C   0  0
   -6.0044   -4.7897    0.0000 O   0  0
    0.0000    3.0008    0.0000 C   0  0
    1.0388    3.6015    0.0000 F   0  0
   -1.0394    3.6005    0.0000 F   0  0
   -0.0006    4.2008    0.0000 F   0  0
  1  2  2  0
  2  3  1  0
  3  4  2  0
  4  5  1  0
  5  6  2  0
  6  1  1  0
  5  7  1  0
  7  8  1  0
  8  9  2  0
  9 10  1  0
 10 11  2  0
 11  7  1  0
 11 12  1  0
  8 13  1  0
 14 15  1  0
 14 16  1  0
 14 17  1  0
 10 18  1  0
 18 19  2  0
 20 21  1  0
 20 22  1  0
 20 23  1  0
  1 14  1  0
  3 20  1  0
M  END
> <Name>
1-(3,5-bis(trifluoromethyl)phenyl)-2,5-dimethyl-1H-pyrrole-3-carbaldehyde

> <OSM_ID>
OSM-S-36

> <Sample_ID>
ZYH 4-2/4-3

> <link>
http://malaria.ourexperiment.org/osm_procedures/7094/Preparation_of_OSMS36.html

> <Series Tag>
Series 1

$$$$
(2Z,5Z)-5-((2,5-dimethyl-1-(p-tolyl)-1H-pyrrol-3-yl)methylene)-2-(phenylimino)thiazolidin-4-one
  SciTegic10081310362D

 28 31  0  0  0  0            999 V2000
    2.3383   -1.3500    0.0000 C   0  0
    1.2990   -0.7500    0.0000 C   0  0
    0.0000   -1.5000    0.0000 C   0  0
   -1.2990   -0.7500    0.0000 C   0  0
   -1.2990    0.7500    0.0000 C   0  0
    0.0000    1.5000    0.0000 C   0  0
    1.2990    0.7500    0.0000 C   0  0
   -2.5987    1.5004    0.0000 N   0  0
   -3.9492    0.8772    0.0000 C   0  0
   -4.1898   -0.2984    0.0000 C   0  0
   -4.9546    1.9903    0.0000 C   0  0
   -4.2067    3.2905    0.0000 C   0  0
   -4.8211    4.6570    0.0000 C   0  0
   -6.3142    4.8094    0.0000 C   0  0
   -7.0490    6.1024    0.0000 C   0  0
   -8.5146    5.7831    0.0000 N   0  0
   -8.6639    4.2905    0.0000 C   0  0
   -9.9560    3.5321    0.0000 N   0  0
   -9.9462    2.0313    0.0000 C   0  0
   -8.6408    1.2924    0.0000 C   0  0
   -8.6279   -0.2076    0.0000 C   0  0
   -9.9205   -0.9687    0.0000 C   0  0
  -11.2259   -0.2298    0.0000 C   0  0
  -11.2387    1.2701    0.0000 C   0  0
   -7.2905    3.6874    0.0000 S   0  0
   -6.5600    7.1982    0.0000 O   0  0
   -2.7390    2.9810    0.0000 C   0  0
   -1.8437    3.7801    0.0000 C   0  0
  1  2  1  0
  2  7  1  0
  2  3  2  0
  3  4  1  0
  4  5  2  0
  5  6  1  0
  5  8  1  0
  6  7  2  0
  8 27  1  0
  8  9  1  0
  9 10  1  0
  9 11  2  0
 11 12  1  0
 12 13  1  0
 12 27  2  0
 13 14  2  0
 14 25  1  0
 14 15  1  0
 15 16  1  0
 15 26  2  0
 16 17  1  0
 17 25  1  0
 18 19  1  0
 19 24  1  0
 19 20  2  0
 20 21  1  0
 21 22  2  0
 22 23  1  0
 23 24  2  0
 27 28  1  0
 17 18  2  0
M  END
> <Name>
(2Z,5Z)-5-((2,5-dimethyl-1-(p-tolyl)-1H-pyrrol-3-yl)methylene)-2-(phenylimino)thiazolidin-4-one

> <OSM_ID>
OSM-S-37

> <Sample_ID>
ZYH 5-1

> <ChEMBL>
dep1

> <3D7_IC50_nM_Ralph>
9.2

> <3D7_IC50_nM_GSK>
15

> <Kinetic_solubility_pH2_ug_per_mL>
0-1.6

> <Kinetic_solubilitiy_pH6.5_ug_per_mL>
0-1.6

> <In_vitro_CLint_uL_min_mg_protein>
7

> <Degradation_half_life _mins>
245

> <Degradation_rate_classification>
low

> <link>
http://malaria.ourexperiment.org/osm_procedures/7095/Preparation_of_OSMS37.html

> <3D7_IC50_nM_Avery>
15

> <Series Tag>
Series 1

$$$$
(2Z,5Z)-5-((2,5-dimethyl-1-(4-(trifluoromethyl)phenyl)-1H-pyrrol-3-yl)methylene)-2-(phenylimino)thiazolidin-4-one
  SciTegic10081310362D

 31 34  0  0  0  0            999 V2000
   -3.6167   -4.5214    0.0000 C   0  0
   -2.7306   -5.3305    0.0000 C   0  0
   -1.2612   -5.0289    0.0000 C   0  0
   -0.5420   -6.3307    0.0000 C   0  0
    0.9498   -6.4949    0.0000 C   0  0
    1.8372   -5.2877    0.0000 C   0  0
    3.3372   -5.2929    0.0000 C   0  0
    3.8056   -3.8679    0.0000 N   0  0
    2.5951   -3.0039    0.0000 C   0  0
    2.5973   -1.5031    0.0000 N   0  0
    1.2990   -0.7500    0.0000 C   0  0
    0.0000   -1.5000    0.0000 C   0  0
   -1.2990   -0.7500    0.0000 C   0  0
   -1.2990    0.7500    0.0000 C   0  0
    0.0000    1.5000    0.0000 C   0  0
    1.2990    0.7500    0.0000 C   0  0
    1.3786   -3.8595    0.0000 S   0  0
    4.0391   -6.2662    0.0000 O   0  0
   -1.5317   -7.4408    0.0000 C   0  0
   -1.2834   -8.6149    0.0000 C   0  0
   -2.8978   -6.8212    0.0000 N   0  0
   -4.2026   -7.5625    0.0000 C   0  0
   -4.0953   -9.0604    0.0000 C   0  0
   -5.3401   -9.8974    0.0000 C   0  0
   -6.6873   -9.2378    0.0000 C   0  0
   -6.7898   -7.7413    0.0000 C   0  0
   -5.5450   -6.9044    0.0000 C   0  0
   -7.9328  -10.0753    0.0000 C   0  0
   -7.8516  -11.2725    0.0000 F   0  0
   -9.0104   -9.5473    0.0000 F   0  0
   -8.9289  -10.7444    0.0000 F   0  0
  1  2  1  0
  2 21  1  0
  2  3  2  0
  3  4  1  0
  4  5  1  0
  4 19  2  0
  5  6  2  0
  6 17  1  0
  6  7  1  0
  7  8  1  0
  7 18  2  0
  8  9  1  0
  9 10  2  0
  9 17  1  0
 10 11  1  0
 11 16  1  0
 11 12  2  0
 12 13  1  0
 13 14  2  0
 14 15  1  0
 15 16  2  0
 19 20  1  0
 19 21  1  0
 21 22  1  0
 22 27  1  0
 22 23  2  0
 23 24  1  0
 24 25  2  0
 25 26  1  0
 25 28  1  0
 26 27  2  0
 28 29  1  0
 28 30  1  0
 28 31  1  0
M  END
> <Name>
(2Z,5Z)-5-((2,5-dimethyl-1-(4-(trifluoromethyl)phenyl)-1H-pyrrol-3-yl)methylene)-2-(phenylimino)thiazolidin-4-one

> <OSM_ID>
OSM-S-38

> <Sample_ID>
ZYH 6-1/6-2

> <ChEMBL>
dep1

> <3D7_IC50_nM_Ralph>
205

> <3D7_IC50_nM_GSK>
29

> <Late_stage_gametocyte_IC50_nM>
2.2

> <Kinetic_solubility_pH2_ug_per_mL>
0.1-6

> <Kinetic_solubilitiy_pH6.5_ug_per_mL>
0-1.6

> <In_vitro_CLint_uL_min_mg_protein>
<7

> <Degradation_half_life _mins>
>250

> <Degradation_rate_classification>
low

> <link>
http://malaria.ourexperiment.org/osm_procedures/7096/Preparation_of_OSMS38.html

> <3D7_IC50_nM_Avery>
2

> <Series Tag>
Series 1

$$$$
(2Z,5Z)-5-((1-(3,5-bis(trifluoromethyl)phenyl)-2,5-dimethyl-1H-pyrrol-3-yl)methylene)-2-(phenylimino)thiazolidin-4-one
  SciTegic10081310362D

 35 38  0  0  0  0            999 V2000
   -3.6167   -4.5214    0.0000 C   0  0
   -2.7306   -5.3305    0.0000 C   0  0
   -1.2612   -5.0289    0.0000 C   0  0
   -0.5420   -6.3307    0.0000 C   0  0
    0.9498   -6.4949    0.0000 C   0  0
    1.8372   -5.2877    0.0000 C   0  0
    3.3372   -5.2929    0.0000 C   0  0
    3.8056   -3.8679    0.0000 N   0  0
    2.5951   -3.0039    0.0000 C   0  0
    2.5973   -1.5031    0.0000 N   0  0
    1.2990   -0.7500    0.0000 C   0  0
    0.0000   -1.5000    0.0000 C   0  0
   -1.2990   -0.7500    0.0000 C   0  0
   -1.2990    0.7500    0.0000 C   0  0
    0.0000    1.5000    0.0000 C   0  0
    1.2990    0.7500    0.0000 C   0  0
    1.3786   -3.8595    0.0000 S   0  0
    4.0391   -6.2662    0.0000 O   0  0
   -1.5317   -7.4408    0.0000 C   0  0
   -1.2834   -8.6149    0.0000 C   0  0
   -2.8978   -6.8212    0.0000 N   0  0
   -4.2026   -7.5625    0.0000 C   0  0
   -4.0953   -9.0604    0.0000 C   0  0
   -5.3401   -9.8974    0.0000 C   0  0
   -6.6873   -9.2378    0.0000 C   0  0
   -6.7898   -7.7413    0.0000 C   0  0
   -5.5450   -6.9044    0.0000 C   0  0
   -8.1378   -7.0815    0.0000 C   0  0
   -9.1340   -7.7504    0.0000 F   0  0
   -8.2194   -5.8842    0.0000 F   0  0
   -9.2153   -6.5533    0.0000 F   0  0
   -5.2376  -11.3947    0.0000 C   0  0
   -4.1602  -11.9230    0.0000 F   0  0
   -6.2336  -12.0639    0.0000 F   0  0
   -5.1562  -12.5919    0.0000 F   0  0
  1  2  1  0
  2 21  1  0
  2  3  2  0
  3  4  1  0
  4  5  1  0
  4 19  2  0
  5  6  2  0
  6 17  1  0
  6  7  1  0
  7  8  1  0
  7 18  2  0
  8  9  1  0
  9 10  2  0
  9 17  1  0
 10 11  1  0
 11 16  1  0
 11 12  2  0
 12 13  1  0
 13 14  2  0
 14 15  1  0
 15 16  2  0
 19 20  1  0
 19 21  1  0
 21 22  1  0
 22 27  1  0
 22 23  2  0
 23 24  1  0
 24 25  2  0
 24 32  1  0
 25 26  1  0
 26 27  2  0
 26 28  1  0
 28 29  1  0
 28 30  1  0
 28 31  1  0
 32 33  1  0
 32 34  1  0
 32 35  1  0
M  END
> <Name>
(2Z,5Z)-5-((1-(3,5-bis(trifluoromethyl)phenyl)-2,5-dimethyl-1H-pyrrol-3-yl)methylene)-2-(phenylimino)thiazolidin-4-one

> <OSM_ID>
OSM-S-39

> <Sample_ID>
ZYH 7-2

> <ChEMBL>
dep1

> <3D7_IC50_nM_Ralph>
4.7

> <3D7_IC50_nM_GSK>
7

> <Late_stage_gametocyte_IC50_nM>
0.78

> <Kinetic_solubility_pH2_ug_per_mL>
0-1.6

> <Kinetic_solubilitiy_pH6.5_ug_per_mL>
0-1.6

> <In_vitro_CLint_uL_min_mg_protein>
<7

> <Degradation_half_life _mins>
>250

> <Degradation_rate_classification>
low

> <link>
http://malaria.ourexperiment.org/osm_procedures/7097/Preparation_of_OSMS39.html

> <3D7_IC50_nM_Avery>
0.78

> <Series Tag>
Series 1

$$$$
ethyl 4-(2,5-dimethyl-1H-pyrrol-1-yl)benzoate
  SciTegic10081310362D

 18 19  0  0  0  0            999 V2000
    1.2990   -0.7500    0.0000 C   0  0
    1.2990    0.7500    0.0000 C   0  0
    0.0000    1.5000    0.0000 C   0  0
   -1.2990    0.7500    0.0000 C   0  0
   -1.2990   -0.7500    0.0000 C   0  0
    0.0000   -1.5000    0.0000 C   0  0
   -2.5987   -1.5004    0.0000 N   0  0
   -3.9511   -0.8815    0.0000 C   0  0
   -4.9530   -1.9978    0.0000 C   0  0
   -4.2010   -3.2957    0.0000 C   0  0
   -2.7343   -2.9815    0.0000 C   0  0
   -1.8365   -3.7777    0.0000 C   0  0
   -4.1955    0.2933    0.0000 C   0  0
    2.5972    1.5031    0.0000 C   0  0
    2.5951    3.0039    0.0000 O   0  0
    3.6375    0.9049    0.0000 O   0  0
    3.8933    3.7570    0.0000 C   0  0
    3.8916    4.9570    0.0000 C   0  0
  1  2  2  0
  2  3  1  0
  3  4  2  0
  4  5  1  0
  5  6  2  0
  6  1  1  0
  5  7  1  0
  7  8  1  0
  8  9  2  0
  9 10  1  0
 10 11  2  0
 11  7  1  0
 11 12  1  0
  8 13  1  0
  2 14  1  0
 14 15  1  0
 14 16  2  0
 15 17  1  0
 17 18  1  0
M  END
> <Name>
ethyl 4-(2,5-dimethyl-1H-pyrrol-1-yl)benzoate

> <OSM_ID>
OSM-S-40

> <Sample_ID>
ZYH 8-1

> <link>
http://malaria.ourexperiment.org/osm_procedures/7098/Preparation_of_OSMS40.html

> <Series Tag>
Series 1

$$$$
Molecule
  SciTegic10081310362D

 13 14  0  0  0  0            999 V2000
    1.2990   -0.7500    0.0000 C   0  0
    1.2990    0.7500    0.0000 C   0  0
    0.0000    1.5000    0.0000 C   0  0
   -1.2990    0.7500    0.0000 N   0  0
   -1.2990   -0.7500    0.0000 C   0  0
    0.0000   -1.5000    0.0000 C   0  0
   -2.5987   -1.5004    0.0000 N   0  0
   -3.9511   -0.8815    0.0000 C   0  0
   -4.9530   -1.9978    0.0000 C   0  0
   -4.2010   -3.2957    0.0000 C   0  0
   -2.7343   -2.9815    0.0000 C   0  0
   -1.8365   -3.7777    0.0000 C   0  0
   -4.1955    0.2933    0.0000 C   0  0
  1  2  2  0
  2  3  1  0
  3  4  2  0
  4  5  1  0
  5  6  2  0
  6  1  1  0
  5  7  1  0
  7  8  1  0
  8  9  2  0
  9 10  1  0
 10 11  2  0
 11  7  1  0
 11 12  1  0
  8 13  1  0
M  END
> <Name>
Molecule

> <OSM_ID>
OSM-S-41

> <Sample_ID>
ZYH 9-1

> <link>
http://malaria.ourexperiment.org/osm_procedures/7099/Preparation_of_OSMS41.html

> <Series Tag>
Series 1

$$$$
2-((2Z,5Z)-5-((2,5-dimethyl-1-(4-(trifluoromethyl)phenyl)-1H-pyrrol-3-yl)methylene)-4-oxo-2-(phenylimino)thiazolidin-3-yl)acetonitrile
  SciTegic10081310362D

 34 37  0  0  0  0            999 V2000
   -3.6167   -4.5214    0.0000 C   0  0
   -2.7306   -5.3305    0.0000 C   0  0
   -1.2612   -5.0289    0.0000 C   0  0
   -0.5420   -6.3307    0.0000 C   0  0
    0.9498   -6.4949    0.0000 C   0  0
    1.8372   -5.2877    0.0000 C   0  0
    3.3372   -5.2929    0.0000 C   0  0
    4.0391   -6.2662    0.0000 O   0  0
    3.8056   -3.8679    0.0000 N   0  0
    5.2276   -3.3960    0.0000 C   0  0
    5.5312   -1.9263    0.0000 C   0  0
    5.7741   -0.7511    0.0000 N   0  0
    2.5951   -3.0039    0.0000 C   0  0
    2.5973   -1.5031    0.0000 N   0  0
    1.2990   -0.7500    0.0000 C   0  0
    0.0000   -1.5000    0.0000 C   0  0
   -1.2990   -0.7500    0.0000 C   0  0
   -1.2990    0.7500    0.0000 C   0  0
    0.0000    1.5000    0.0000 C   0  0
    1.2990    0.7500    0.0000 C   0  0
    1.3786   -3.8595    0.0000 S   0  0
   -1.5317   -7.4408    0.0000 C   0  0
   -1.2834   -8.6149    0.0000 C   0  0
   -2.8978   -6.8212    0.0000 N   0  0
   -4.2026   -7.5625    0.0000 C   0  0
   -4.0953   -9.0604    0.0000 C   0  0
   -5.3401   -9.8974    0.0000 C   0  0
   -6.6873   -9.2378    0.0000 C   0  0
   -6.7898   -7.7413    0.0000 C   0  0
   -5.5450   -6.9044    0.0000 C   0  0
   -7.9328  -10.0753    0.0000 C   0  0
   -7.8516  -11.2725    0.0000 F   0  0
   -9.0104   -9.5473    0.0000 F   0  0
   -8.9289  -10.7444    0.0000 F   0  0
  1  2  1  0
  2 24  1  0
  2  3  2  0
  3  4  1  0
  4  5  1  0
  4 22  2  0
  5  6  2  0
  6 21  1  0
  6  7  1  0
  7  8  2  0
  7  9  1  0
  9 10  1  0
  9 13  1  0
 10 11  1  0
 11 12  3  0
 13 14  2  0
 13 21  1  0
 14 15  1  0
 15 20  1  0
 15 16  2  0
 16 17  1  0
 17 18  2  0
 18 19  1  0
 19 20  2  0
 22 23  1  0
 22 24  1  0
 24 25  1  0
 25 30  1  0
 25 26  2  0
 26 27  1  0
 27 28  2  0
 28 29  1  0
 28 31  1  0
 29 30  2  0
 31 32  1  0
 31 33  1  0
 31 34  1  0
M  END
> <Name>
2-((2Z,5Z)-5-((2,5-dimethyl-1-(4-(trifluoromethyl)phenyl)-1H-pyrrol-3-yl)methylene)-4-oxo-2-(phenylimino)thiazolidin-3-yl)acetonitrile

> <OSM_ID>
OSM-S-42

> <Sample_ID>
ZYH 10-1 A

> <ChEMBL>
dep1

> <3D7_IC50_nM_Ralph>
>1000

> <3D7_IC50_nM_GSK>
>5000

> <HEK293_at_120uM>
40%

> <link>
http://malaria.ourexperiment.org/osm_procedures/7100/Preparation_of_OSMS42.html

> <3D7_IC50_nM_Avery>
could not determine

> <Series Tag>
Series 1

$$$$
(Z)-2-((5-((2,5-dimethyl-1-(4-(trifluoromethyl)phenyl)-1H-pyrrol-3-yl)methylene)-4-oxo-4,5-dihydrothiazol-2-yl)(phenyl)amino)acetonitrile
  SciTegic10081310362D

 34 37  0  0  0  0            999 V2000
    8.3200   -5.3705    0.0000 C   0  0
    8.5774   -4.1984    0.0000 C   0  0
    7.5813   -3.0769    0.0000 C   0  0
    8.3489   -1.8030    0.0000 C   0  0
    7.7449   -0.4291    0.0000 C   0  0
    6.2557   -0.2645    0.0000 C   0  0
    5.5100    1.0370    0.0000 C   0  0
    6.0017    2.1316    0.0000 O   0  0
    4.0418    0.7299    0.0000 N   0  0
    3.8990   -0.7504    0.0000 C   0  0
    2.5990   -1.5003    0.0000 N   0  0
    2.5957   -3.0011    0.0000 C   0  0
    1.2948   -3.7495    0.0000 C   0  0
    0.2547   -4.3479    0.0000 N   0  0
    1.2990   -0.7500    0.0000 C   0  0
    0.0000   -1.5000    0.0000 C   0  0
   -1.2990   -0.7500    0.0000 C   0  0
   -1.2990    0.7500    0.0000 C   0  0
    0.0000    1.5000    0.0000 C   0  0
    1.2990    0.7500    0.0000 C   0  0
    5.2484   -1.3759    0.0000 S   0  0
    9.8052   -2.1048    0.0000 C   0  0
   10.6976   -1.3026    0.0000 C   0  0
    9.9519   -3.5976    0.0000 N   0  0
   11.2464   -4.3568    0.0000 C   0  0
   12.4898   -3.5147    0.0000 C   0  0
   13.8372   -4.1739    0.0000 C   0  0
   13.9399   -5.6704    0.0000 C   0  0
   12.6953   -6.5076    0.0000 C   0  0
   11.3479   -5.8484    0.0000 C   0  0
   15.2880   -6.3300    0.0000 C   0  0
   16.2841   -5.6609    0.0000 F   0  0
   15.3698   -7.5272    0.0000 F   0  0
   16.3657   -6.8580    0.0000 F   0  0
  1  2  1  0
  2 24  1  0
  2  3  2  0
  3  4  1  0
  4  5  1  0
  4 22  2  0
  5  6  2  0
  6 21  1  0
  6  7  1  0
  7  8  2  0
  7  9  1  0
  9 10  2  0
 10 11  1  0
 10 21  1  0
 11 12  1  0
 11 15  1  0
 12 13  1  0
 13 14  3  0
 15 20  1  0
 15 16  2  0
 16 17  1  0
 17 18  2  0
 18 19  1  0
 19 20  2  0
 22 23  1  0
 22 24  1  0
 24 25  1  0
 25 30  1  0
 25 26  2  0
 26 27  1  0
 27 28  2  0
 28 29  1  0
 28 31  1  0
 29 30  2  0
 31 32  1  0
 31 33  1  0
 31 34  1  0
M  END
> <Name>
(Z)-2-((5-((2,5-dimethyl-1-(4-(trifluoromethyl)phenyl)-1H-pyrrol-3-yl)methylene)-4-oxo-4,5-dihydrothiazol-2-yl)(phenyl)amino)acetonitrile

> <OSM_ID>
OSM-S-43

> <Sample_ID>
ZYH 10-1 B

> <ChEMBL>
dep1

> <3D7_IC50_nM_Ralph>
>1000

> <3D7_IC50_nM_GSK>
>5000

> <link>
http://malaria.ourexperiment.org/osm_procedures/7110/Preparation_of_OSMS43.html

> <3D7_IC50_nM_Avery>
3120

> <Series Tag>
Series 1

$$$$
2,5-dimethyl-1-(pyridin-2-yl)-1H-pyrrole-3-carbaldehyde
  SciTegic10081310362D

 15 16  0  0  0  0            999 V2000
    1.2990   -0.7500    0.0000 C   0  0
    1.2990    0.7500    0.0000 C   0  0
    0.0000    1.5000    0.0000 C   0  0
   -1.2990    0.7500    0.0000 N   0  0
   -1.2990   -0.7500    0.0000 C   0  0
    0.0000   -1.5000    0.0000 C   0  0
   -2.5987   -1.5004    0.0000 N   0  0
   -3.9511   -0.8815    0.0000 C   0  0
   -4.9530   -1.9978    0.0000 C   0  0
   -4.2010   -3.2957    0.0000 C   0  0
   -2.7343   -2.9815    0.0000 C   0  0
   -1.8365   -3.7777    0.0000 C   0  0
   -4.1955    0.2933    0.0000 C   0  0
   -4.8110   -4.6641    0.0000 C   0  0
   -6.0044   -4.7897    0.0000 O   0  0
  1  2  2  0
  2  3  1  0
  3  4  2  0
  4  5  1  0
  5  6  2  0
  6  1  1  0
  5  7  1  0
  7  8  1  0
  8  9  2  0
  9 10  1  0
 10 11  2  0
 11  7  1  0
 11 12  1  0
  8 13  1  0
 10 14  1  0
 14 15  2  0
M  END
> <Name>
2,5-dimethyl-1-(pyridin-2-yl)-1H-pyrrole-3-carbaldehyde

> <OSM_ID>
OSM-S-44

> <Sample_ID>
ZYH 11-1

> <link>
http://malaria.ourexperiment.org/osm_procedures/7111/Preparation_of_OSMS44.html

> <Series Tag>
Series 1

$$$$
(Z)-N-(5-((2,5-dimethyl-1-(4-(trifluoromethyl)phenyl)-1H-pyrrol-3-yl)methylene)-4-oxo-4,5-dihydrothiazol-2-yl)-N-phenylacetamide
  SciTegic10081310362D

 34 37  0  0  0  0            999 V2000
    4.0391   -6.2662    0.0000 O   0  0
    3.3372   -5.2929    0.0000 C   0  0
    3.8056   -3.8679    0.0000 N   0  0
    2.5951   -3.0039    0.0000 C   0  0
    2.5973   -1.5031    0.0000 N   0  0
    3.8968   -0.7523    0.0000 C   0  0
    4.9360   -1.3523    0.0000 C   0  0
    3.8972    0.4477    0.0000 O   0  0
    1.2990   -0.7500    0.0000 C   0  0
    0.0000   -1.5000    0.0000 C   0  0
   -1.2990   -0.7500    0.0000 C   0  0
   -1.2990    0.7500    0.0000 C   0  0
    0.0000    1.5000    0.0000 C   0  0
    1.2990    0.7500    0.0000 C   0  0
    1.3786   -3.8595    0.0000 S   0  0
    1.8372   -5.2877    0.0000 C   0  0
    0.9498   -6.4949    0.0000 C   0  0
   -0.5420   -6.3307    0.0000 C   0  0
   -1.5317   -7.4408    0.0000 C   0  0
   -1.2834   -8.6148    0.0000 C   0  0
   -2.8978   -6.8212    0.0000 N   0  0
   -2.7306   -5.3305    0.0000 C   0  0
   -3.6167   -4.5214    0.0000 C   0  0
   -1.2612   -5.0289    0.0000 C   0  0
   -4.2026   -7.5625    0.0000 C   0  0
   -4.0954   -9.0604    0.0000 C   0  0
   -5.3401   -9.8973    0.0000 C   0  0
   -6.6874   -9.2378    0.0000 C   0  0
   -7.9328  -10.0752    0.0000 C   0  0
   -7.8516  -11.2725    0.0000 F   0  0
   -9.0104   -9.5473    0.0000 F   0  0
   -8.9290  -10.7443    0.0000 F   0  0
   -6.7898   -7.7413    0.0000 C   0  0
   -5.5450   -6.9043    0.0000 C   0  0
  1  2  2  0
  2 16  1  0
  2  3  1  0
  3  4  2  0
  4  5  1  0
  4 15  1  0
  5  6  1  0
  5  9  1  0
  6  7  1  0
  6  8  2  0
  9 14  1  0
  9 10  2  0
 10 11  1  0
 11 12  2  0
 12 13  1  0
 13 14  2  0
 15 16  1  0
 16 17  2  0
 17 18  1  0
 18 24  1  0
 18 19  2  0
 19 20  1  0
 19 21  1  0
 21 22  1  0
 21 25  1  0
 22 23  1  0
 22 24  2  0
 25 34  1  0
 25 26  2  0
 26 27  1  0
 27 28  2  0
 28 29  1  0
 28 33  1  0
 29 30  1  0
 29 31  1  0
 29 32  1  0
 33 34  2  0
M  END
> <Name>
(Z)-N-(5-((2,5-dimethyl-1-(4-(trifluoromethyl)phenyl)-1H-pyrrol-3-yl)methylene)-4-oxo-4,5-dihydrothiazol-2-yl)-N-phenylacetamide

> <OSM_ID>
OSM-S-45

> <Sample_ID>
ZYH 12-1/12-2

> <ChEMBL>
dep1

> <3D7_IC50_nM_Ralph>
7.7

> <3D7_IC50_nM_GSK>
26

> <link>
http://malaria.ourexperiment.org/osm_procedures/7112/Preparation_of_OSMS45.html

> <3D7_IC50_nM_Avery>
12

> <Series Tag>
Series 1

$$$$
ethyl 4-(3-formyl-2,5-dimethyl-1H-pyrrol-1-yl)benzoate
  SciTegic10081310362D

 20 21  0  0  0  0            999 V2000
    1.2990   -0.7500    0.0000 C   0  0
    1.2990    0.7500    0.0000 C   0  0
    0.0000    1.5000    0.0000 C   0  0
   -1.2990    0.7500    0.0000 C   0  0
   -1.2990   -0.7500    0.0000 C   0  0
    0.0000   -1.5000    0.0000 C   0  0
   -2.5987   -1.5004    0.0000 N   0  0
   -3.9511   -0.8815    0.0000 C   0  0
   -4.9530   -1.9978    0.0000 C   0  0
   -4.2010   -3.2957    0.0000 C   0  0
   -2.7343   -2.9815    0.0000 C   0  0
   -1.8365   -3.7777    0.0000 C   0  0
   -4.1955    0.2933    0.0000 C   0  0
   -4.8110   -4.6641    0.0000 C   0  0
   -6.0044   -4.7897    0.0000 O   0  0
    2.5972    1.5031    0.0000 C   0  0
    2.5951    3.0039    0.0000 O   0  0
    3.6375    0.9049    0.0000 O   0  0
    3.8933    3.7570    0.0000 C   0  0
    3.8916    4.9570    0.0000 C   0  0
  1  2  2  0
  2  3  1  0
  3  4  2  0
  4  5  1  0
  5  6  2  0
  6  1  1  0
  5  7  1  0
  7  8  1  0
  8  9  2  0
  9 10  1  0
 10 11  2  0
 11  7  1  0
 11 12  1  0
  8 13  1  0
 10 14  1  0
 14 15  2  0
  2 16  1  0
 16 17  1  0
 16 18  2  0
 17 19  1  0
 19 20  1  0
M  END
> <Name>
ethyl 4-(3-formyl-2,5-dimethyl-1H-pyrrol-1-yl)benzoate

> <OSM_ID>
OSM-S-46

> <Sample_ID>
ZYH 13-1

> <link>
http://malaria.ourexperiment.org/osm_procedures/7113/Preparation_of_OSMS46.html

> <Series Tag>
Series 1

$$$$
Molecule
  SciTegic10081310362D

 19 21  0  0  0  0            999 V2000
    2.7343   -2.9815    0.0000 C   0  0
    4.2010   -3.2956    0.0000 C   0  0
    4.9531   -1.9978    0.0000 S   0  0
    3.9511   -0.8815    0.0000 C   0  0
    2.5987   -1.5004    0.0000 N   0  0
    1.8365   -3.7777    0.0000 O   0  0
    1.2990   -0.7500    0.0000 C   0  0
    4.2567    0.5852    0.0000 N   0  0
    5.6819    1.0557    0.0000 C   0  0
    1.2990    0.7500    0.0000 C   0  0
    0.0000    1.5000    0.0000 C   0  0
   -1.2990    0.7500    0.0000 C   0  0
   -1.2990   -0.7500    0.0000 C   0  0
    0.0000   -1.5000    0.0000 C   0  0
    5.9901    2.5237    0.0000 C   0  0
    7.4154    2.9910    0.0000 C   0  0
    8.5328    1.9902    0.0000 C   0  0
    8.2247    0.5221    0.0000 C   0  0
    6.7994    0.0549    0.0000 C   0  0
  1  2  1  0
  2  3  1  0
  3  4  1  0
  4  5  1  0
  5  1  1  0
  1  6  2  0
  5  7  1  0
  4  8  2  0
  8  9  1  0
  7 10  2  0
 10 11  1  0
 11 12  2  0
 12 13  1  0
 13 14  2  0
 14  7  1  0
  9 15  2  0
 15 16  1  0
 16 17  2  0
 17 18  1  0
 18 19  2  0
 19  9  1  0
M  END
> <Name>
Molecule

> <OSM_ID>
OSM-S-47

> <Sample_ID>
ZYH 14-1

> <link>
http://malaria.ourexperiment.org/osm_procedures/7114/Preparation_of_OSMS47.html

$$$$
ethyl 4-(2,5-dimethyl-3-((Z)-((Z)-4-oxo-2-(phenylimino)thiazolidin-5-ylidene)methyl)-1H-pyrrol-1-yl)benzoate
  SciTegic10081310362D

 32 35  0  0  0  0            999 V2000
    3.8916   -4.9570    0.0000 C   0  0
    3.8933   -3.7570    0.0000 C   0  0
    2.5951   -3.0039    0.0000 O   0  0
    2.5973   -1.5031    0.0000 C   0  0
    3.6375   -0.9049    0.0000 O   0  0
    1.2990   -0.7500    0.0000 C   0  0
    0.0000   -1.5000    0.0000 C   0  0
   -1.2990   -0.7500    0.0000 C   0  0
   -1.2990    0.7500    0.0000 C   0  0
    0.0000    1.5000    0.0000 C   0  0
    1.2990    0.7500    0.0000 C   0  0
   -2.5987    1.5004    0.0000 N   0  0
   -3.9492    0.8772    0.0000 C   0  0
   -4.1898   -0.2984    0.0000 C   0  0
   -4.9546    1.9903    0.0000 C   0  0
   -4.2067    3.2905    0.0000 C   0  0
   -4.8211    4.6570    0.0000 C   0  0
   -6.3142    4.8094    0.0000 C   0  0
   -7.0490    6.1024    0.0000 C   0  0
   -8.5146    5.7831    0.0000 N   0  0
   -8.6639    4.2905    0.0000 C   0  0
   -9.9560    3.5321    0.0000 N   0  0
  -11.2615    4.2724    0.0000 C   0  0
  -11.2703    5.7724    0.0000 C   0  0
  -12.5736    6.5149    0.0000 C   0  0
  -13.8683    5.7574    0.0000 C   0  0
  -13.8596    4.2575    0.0000 C   0  0
  -12.5563    3.5149    0.0000 C   0  0
   -7.2905    3.6874    0.0000 S   0  0
   -6.5600    7.1982    0.0000 O   0  0
   -2.7390    2.9810    0.0000 C   0  0
   -1.8437    3.7801    0.0000 C   0  0
  1  2  1  0
  2  3  1  0
  3  4  1  0
  4  5  2  0
  4  6  1  0
  6 11  1  0
  6  7  2  0
  7  8  1  0
  8  9  2  0
  9 10  1  0
  9 12  1  0
 10 11  2  0
 12 31  1  0
 12 13  1  0
 13 14  1  0
 13 15  2  0
 15 16  1  0
 16 17  1  0
 16 31  2  0
 17 18  2  0
 18 29  1  0
 18 19  1  0
 19 20  1  0
 19 30  2  0
 20 21  1  0
 21 22  2  0
 21 29  1  0
 22 23  1  0
 23 28  1  0
 23 24  2  0
 24 25  1  0
 25 26  2  0
 26 27  1  0
 27 28  2  0
 31 32  1  0
M  END
> <Name>
ethyl 4-(2,5-dimethyl-3-((Z)-((Z)-4-oxo-2-(phenylimino)thiazolidin-5-ylidene)methyl)-1H-pyrrol-1-yl)benzoate

> <OSM_ID>
OSM-S-48

> <Sample_ID>
ZYH 15-1

> <ChEMBL>
dep1

> <3D7_IC50_nM_Ralph>
338.9

> <3D7_IC50_nM_GSK>
267

> <link>
http://malaria.ourexperiment.org/osm_procedures/7115/Preparation_of_OSMS48.html

> <3D7_IC50_nM_Avery>
169

> <Series Tag>
Series 1

$$$$
(Z)-N-(5-((2,5-dimethyl-1-phenyl-1H-pyrrol-3-yl)methylene)-4-oxo-4,5-dihydrothiazol-2-yl)-N-phenylacetamide
  SciTegic10081310362D

 30 33  0  0  0  0            999 V2000
    4.0391   -6.2662    0.0000 O   0  0
    3.3372   -5.2929    0.0000 C   0  0
    3.8056   -3.8679    0.0000 N   0  0
    2.5951   -3.0039    0.0000 C   0  0
    2.5973   -1.5031    0.0000 N   0  0
    3.8968   -0.7523    0.0000 C   0  0
    4.9360   -1.3523    0.0000 C   0  0
    3.8972    0.4477    0.0000 O   0  0
    1.2990   -0.7500    0.0000 C   0  0
    0.0000   -1.5000    0.0000 C   0  0
   -1.2990   -0.7500    0.0000 C   0  0
   -1.2990    0.7500    0.0000 C   0  0
    0.0000    1.5000    0.0000 C   0  0
    1.2990    0.7500    0.0000 C   0  0
    1.3786   -3.8595    0.0000 S   0  0
    1.8372   -5.2877    0.0000 C   0  0
    0.9498   -6.4949    0.0000 C   0  0
   -0.5420   -6.3307    0.0000 C   0  0
   -1.5317   -7.4408    0.0000 C   0  0
   -1.2834   -8.6148    0.0000 C   0  0
   -2.8978   -6.8212    0.0000 N   0  0
   -2.7306   -5.3305    0.0000 C   0  0
   -3.6167   -4.5214    0.0000 C   0  0
   -1.2612   -5.0289    0.0000 C   0  0
   -4.2026   -7.5625    0.0000 C   0  0
   -4.0954   -9.0604    0.0000 C   0  0
   -5.3401   -9.8973    0.0000 C   0  0
   -6.6874   -9.2378    0.0000 C   0  0
   -6.7898   -7.7413    0.0000 C   0  0
   -5.5450   -6.9043    0.0000 C   0  0
  1  2  2  0
  2 16  1  0
  2  3  1  0
  3  4  2  0
  4  5  1  0
  4 15  1  0
  5  6  1  0
  5  9  1  0
  6  7  1  0
  6  8  2  0
  9 14  1  0
  9 10  2  0
 10 11  1  0
 11 12  2  0
 12 13  1  0
 13 14  2  0
 15 16  1  0
 16 17  2  0
 17 18  1  0
 18 24  1  0
 18 19  2  0
 19 20  1  0
 19 21  1  0
 21 22  1  0
 21 25  1  0
 22 23  1  0
 22 24  2  0
 25 30  1  0
 25 26  2  0
 26 27  1  0
 27 28  2  0
 28 29  1  0
 29 30  2  0
M  END
> <Name>
(Z)-N-(5-((2,5-dimethyl-1-phenyl-1H-pyrrol-3-yl)methylene)-4-oxo-4,5-dihydrothiazol-2-yl)-N-phenylacetamide

> <OSM_ID>
OSM-S-49

> <Sample_ID>
ZYH 16-1

> <ChEMBL>
dep1

> <3D7_IC50_nM_Ralph>
27.6

> <3D7_IC50_nM_GSK>
85

> <link>
http://malaria.ourexperiment.org/osm_procedures/7116/Preparation_of_OSMS49.html

> <3D7_IC50_nM_Avery>
63

> <Series Tag>
Series 1

$$$$
(Z)-N-(5-((2,5-dimethyl-1-(p-tolyl)-1H-pyrrol-3-yl)methylene)-4-oxo-4,5-dihydrothiazol-2-yl)-N-phenylacetamide
  SciTegic10081310362D

 31 34  0  0  0  0            999 V2000
    4.0391   -6.2662    0.0000 O   0  0
    3.3372   -5.2929    0.0000 C   0  0
    3.8056   -3.8679    0.0000 N   0  0
    2.5951   -3.0039    0.0000 C   0  0
    2.5973   -1.5031    0.0000 N   0  0
    3.8968   -0.7523    0.0000 C   0  0
    4.9360   -1.3523    0.0000 C   0  0
    3.8972    0.4477    0.0000 O   0  0
    1.2990   -0.7500    0.0000 C   0  0
    0.0000   -1.5000    0.0000 C   0  0
   -1.2990   -0.7500    0.0000 C   0  0
   -1.2990    0.7500    0.0000 C   0  0
    0.0000    1.5000    0.0000 C   0  0
    1.2990    0.7500    0.0000 C   0  0
    1.3786   -3.8595    0.0000 S   0  0
    1.8372   -5.2877    0.0000 C   0  0
    0.9498   -6.4949    0.0000 C   0  0
   -0.5420   -6.3307    0.0000 C   0  0
   -1.5317   -7.4408    0.0000 C   0  0
   -1.2834   -8.6148    0.0000 C   0  0
   -2.8978   -6.8212    0.0000 N   0  0
   -2.7306   -5.3305    0.0000 C   0  0
   -3.6167   -4.5214    0.0000 C   0  0
   -1.2612   -5.0289    0.0000 C   0  0
   -4.2026   -7.5625    0.0000 C   0  0
   -4.0954   -9.0604    0.0000 C   0  0
   -5.3401   -9.8973    0.0000 C   0  0
   -6.6874   -9.2378    0.0000 C   0  0
   -7.6832   -9.9074    0.0000 C   0  0
   -6.7898   -7.7413    0.0000 C   0  0
   -5.5450   -6.9043    0.0000 C   0  0
  1  2  2  0
  2 16  1  0
  2  3  1  0
  3  4  2  0
  4  5  1  0
  4 15  1  0
  5  6  1  0
  5  9  1  0
  6  7  1  0
  6  8  2  0
  9 14  1  0
  9 10  2  0
 10 11  1  0
 11 12  2  0
 12 13  1  0
 13 14  2  0
 15 16  1  0
 16 17  2  0
 17 18  1  0
 18 24  1  0
 18 19  2  0
 19 20  1  0
 19 21  1  0
 21 22  1  0
 21 25  1  0
 22 23  1  0
 22 24  2  0
 25 31  1  0
 25 26  2  0
 26 27  1  0
 27 28  2  0
 28 29  1  0
 28 30  1  0
 30 31  2  0
M  END
> <Name>
(Z)-N-(5-((2,5-dimethyl-1-(p-tolyl)-1H-pyrrol-3-yl)methylene)-4-oxo-4,5-dihydrothiazol-2-yl)-N-phenylacetamide

> <OSM_ID>
OSM-S-50

> <Sample_ID>
ZYH 17-1

> <ChEMBL>
dep1

> <3D7_IC50_nM_Ralph>
156

> <3D7_IC50_nM_GSK>
25

> <link>
http://malaria.ourexperiment.org/osm_procedures/7117/Preparation_of_OSMS50.html

> <3D7_IC50_nM_Avery>
326

> <Series Tag>
Series 1

$$$$
(2Z,5Z)-5-((2,5-dimethyl-1-(pyridin-2-yl)-1H-pyrrol-3-yl)methylene)-2-(phenylimino)thiazolidin-4-one
  SciTegic10081310362D

 27 30  0  0  0  0            999 V2000
   -3.6167   -4.5214    0.0000 C   0  0
   -2.7306   -5.3305    0.0000 C   0  0
   -1.2612   -5.0289    0.0000 C   0  0
   -0.5420   -6.3307    0.0000 C   0  0
    0.9498   -6.4949    0.0000 C   0  0
    1.8372   -5.2877    0.0000 C   0  0
    3.3372   -5.2929    0.0000 C   0  0
    3.8056   -3.8679    0.0000 N   0  0
    2.5951   -3.0039    0.0000 C   0  0
    2.5973   -1.5031    0.0000 N   0  0
    1.2990   -0.7500    0.0000 C   0  0
    0.0000   -1.5000    0.0000 C   0  0
   -1.2990   -0.7500    0.0000 C   0  0
   -1.2990    0.7500    0.0000 C   0  0
    0.0000    1.5000    0.0000 C   0  0
    1.2990    0.7500    0.0000 C   0  0
    1.3786   -3.8595    0.0000 S   0  0
    4.0391   -6.2662    0.0000 O   0  0
   -1.5317   -7.4408    0.0000 C   0  0
   -1.2834   -8.6149    0.0000 C   0  0
   -2.8978   -6.8212    0.0000 N   0  0
   -4.2026   -7.5625    0.0000 C   0  0
   -4.0953   -9.0604    0.0000 C   0  0
   -5.3401   -9.8974    0.0000 C   0  0
   -6.6873   -9.2378    0.0000 C   0  0
   -6.7898   -7.7413    0.0000 C   0  0
   -5.5450   -6.9044    0.0000 N   0  0
  1  2  1  0
  2 21  1  0
  2  3  2  0
  3  4  1  0
  4  5  1  0
  4 19  2  0
  5  6  2  0
  6 17  1  0
  6  7  1  0
  7  8  1  0
  7 18  2  0
  8  9  1  0
  9 10  2  0
  9 17  1  0
 10 11  1  0
 11 16  1  0
 11 12  2  0
 12 13  1  0
 13 14  2  0
 14 15  1  0
 15 16  2  0
 19 20  1  0
 19 21  1  0
 21 22  1  0
 22 27  1  0
 22 23  2  0
 23 24  1  0
 24 25  2  0
 25 26  1  0
 26 27  2  0
M  END
> <Name>
(2Z,5Z)-5-((2,5-dimethyl-1-(pyridin-2-yl)-1H-pyrrol-3-yl)methylene)-2-(phenylimino)thiazolidin-4-one

> <OSM_ID>
OSM-S-51

> <Sample_ID>
ZYH 18-1

> <ChEMBL>
dep1

> <3D7_IC50_nM_Ralph>
442.4

> <3D7_IC50_nM_GSK>
309

> <link>
http://malaria.ourexperiment.org/osm_procedures/7118/Preparation_of_OSMS51.html

> <3D7_IC50_nM_Avery>
307

> <Series Tag>
Series 1

$$$$
(2Z,5Z)-5-((2,5-dimethyl-1-(4-(trifluoromethyl)phenyl)-1H-pyrrol-3-yl)methylene)-3-phenyl-2-(phenylimino)thiazolidin-4-one
  SciTegic10081310362D

 37 41  0  0  0  0            999 V2000
    8.0416   -6.5578    0.0000 C   0  0
    8.0477   -5.3578    0.0000 C   0  0
    6.8386   -4.4700    0.0000 C   0  0
    7.3222   -3.0635    0.0000 C   0  0
    6.4437   -1.8466    0.0000 C   0  0
    4.9531   -1.9978    0.0000 C   0  0
    3.9511   -0.8815    0.0000 C   0  0
    4.1955    0.2934    0.0000 O   0  0
    2.5987   -1.5004    0.0000 N   0  0
    1.2990   -0.7500    0.0000 C   0  0
    0.0000   -1.5000    0.0000 C   0  0
   -1.2990   -0.7500    0.0000 C   0  0
   -1.2990    0.7500    0.0000 C   0  0
    0.0000    1.5000    0.0000 C   0  0
    1.2990    0.7500    0.0000 C   0  0
    2.7343   -2.9815    0.0000 C   0  0
    1.6137   -3.9759    0.0000 N   0  0
    1.9143   -5.4464    0.0000 C   0  0
    3.3382   -5.9182    0.0000 C   0  0
    3.6416   -7.3872    0.0000 C   0  0
    2.5211   -8.3844    0.0000 C   0  0
    1.0972   -7.9127    0.0000 C   0  0
    0.7938   -6.4437    0.0000 C   0  0
    4.2010   -3.2956    0.0000 S   0  0
    8.8094   -3.0534    0.0000 C   0  0
    9.5139   -2.0819    0.0000 C   0  0
    9.2656   -4.4823    0.0000 N   0  0
   10.6906   -4.9533    0.0000 C   0  0
   11.7299   -3.8693    0.0000 C   0  0
   13.1855   -4.2315    0.0000 C   0  0
   13.5995   -5.6733    0.0000 C   0  0
   12.5580   -6.7527    0.0000 C   0  0
   11.1024   -6.3905    0.0000 C   0  0
   15.0559   -6.0357    0.0000 C   0  0
   15.8897   -5.1727    0.0000 F   0  0
   15.3868   -7.1892    0.0000 F   0  0
   16.2203   -6.3261    0.0000 F   0  0
  1  2  1  0
  2 27  1  0
  2  3  2  0
  3  4  1  0
  4  5  1  0
  4 25  2  0
  5  6  2  0
  6 24  1  0
  6  7  1  0
  7  8  2  0
  7  9  1  0
  9 10  1  0
  9 16  1  0
 10 15  1  0
 10 11  2  0
 11 12  1  0
 12 13  2  0
 13 14  1  0
 14 15  2  0
 16 17  2  0
 16 24  1  0
 17 18  1  0
 18 23  1  0
 18 19  2  0
 19 20  1  0
 20 21  2  0
 21 22  1  0
 22 23  2  0
 25 26  1  0
 25 27  1  0
 27 28  1  0
 28 33  1  0
 28 29  2  0
 29 30  1  0
 30 31  2  0
 31 32  1  0
 31 34  1  0
 32 33  2  0
 34 35  1  0
 34 36  1  0
 34 37  1  0
M  END
> <Name>
(2Z,5Z)-5-((2,5-dimethyl-1-(4-(trifluoromethyl)phenyl)-1H-pyrrol-3-yl)methylene)-3-phenyl-2-(phenylimino)thiazolidin-4-one

> <OSM_ID>
OSM-S-52

> <Sample_ID>
ZYH 19-1

> <ChEMBL>
dep1

> <3D7_IC50_nM_Ralph>
484.7

> <3D7_IC50_nM_GSK>
372

> <link>
http://malaria.ourexperiment.org/osm_procedures/7119/Preparation_of_OSMS52.html

> <3D7_IC50_nM_Avery>
54

> <Series Tag>
Series 1

$$$$
N-(phenylcarbamoyl)acetamide
  SciTegic10081310362D

 13 13  0  0  0  0            999 V2000
    1.2990   -0.7500    0.0000 C   0  0
    1.2990    0.7500    0.0000 C   0  0
    0.0000    1.5000    0.0000 C   0  0
   -1.2990    0.7500    0.0000 C   0  0
   -1.2990   -0.7500    0.0000 C   0  0
    0.0000   -1.5000    0.0000 C   0  0
   -2.6003    1.4977    0.0000 N   0  0
   -3.8990    0.7455    0.0000 C   0  0
   -5.2003    1.4932    0.0000 N   0  0
   -3.8969   -0.4545    0.0000 O   0  0
   -6.4990    0.7409    0.0000 C   0  0
   -6.4969   -0.4591    0.0000 C   0  0
   -7.5395    1.3388    0.0000 O   0  0
  1  2  2  0
  2  3  1  0
  3  4  2  0
  4  5  1  0
  5  6  2  0
  6  1  1  0
  4  7  1  0
  7  8  1  0
  8  9  1  0
  8 10  2  0
  9 11  1  0
 11 12  1  0
 11 13  2  0
M  END
> <Name>
N-(phenylcarbamoyl)acetamide

> <OSM_ID>
OSM-S-53

> <Sample_ID>
ZYH 20-1

> <link>
http://malaria.ourexperiment.org/osm_procedures/7120/Preparation_of_OSMS53.html

$$$$
(2Z,5Z)-3-cyclopentyl-5-((2,5-dimethyl-1-(4-(trifluoromethyl)phenyl)-1H-pyrrol-3-yl)methylene)-2-(phenylimino)thiazolidin-4-one
  SciTegic10081310362D

 36 40  0  0  0  0            999 V2000
   -3.6167   -4.5214    0.0000 C   0  0
   -2.7306   -5.3305    0.0000 C   0  0
   -1.2612   -5.0289    0.0000 C   0  0
   -0.5420   -6.3307    0.0000 C   0  0
    0.9498   -6.4949    0.0000 C   0  0
    1.8372   -5.2877    0.0000 C   0  0
    3.3372   -5.2929    0.0000 C   0  0
    4.0391   -6.2662    0.0000 O   0  0
    3.8056   -3.8679    0.0000 N   0  0
    5.2318   -3.4007    0.0000 C   0  0
    6.3470   -4.3862    0.0000 C   0  0
    7.6272   -3.6045    0.0000 C   0  0
    7.2795   -2.1454    0.0000 C   0  0
    5.7843   -2.0252    0.0000 C   0  0
    2.5951   -3.0039    0.0000 C   0  0
    2.5973   -1.5031    0.0000 N   0  0
    1.2990   -0.7500    0.0000 C   0  0
    0.0000   -1.5000    0.0000 C   0  0
   -1.2990   -0.7500    0.0000 C   0  0
   -1.2990    0.7500    0.0000 C   0  0
    0.0000    1.5000    0.0000 C   0  0
    1.2990    0.7500    0.0000 C   0  0
    1.3786   -3.8595    0.0000 S   0  0
   -1.5317   -7.4408    0.0000 C   0  0
   -1.2834   -8.6149    0.0000 C   0  0
   -2.8978   -6.8212    0.0000 N   0  0
   -4.2026   -7.5625    0.0000 C   0  0
   -4.0953   -9.0604    0.0000 C   0  0
   -5.3401   -9.8974    0.0000 C   0  0
   -6.6873   -9.2378    0.0000 C   0  0
   -6.7898   -7.7413    0.0000 C   0  0
   -5.5450   -6.9044    0.0000 C   0  0
   -7.9328  -10.0753    0.0000 C   0  0
   -7.8516  -11.2725    0.0000 F   0  0
   -9.0104   -9.5473    0.0000 F   0  0
   -8.9289  -10.7444    0.0000 F   0  0
  1  2  1  0
  2 26  1  0
  2  3  2  0
  3  4  1  0
  4  5  1  0
  4 24  2  0
  5  6  2  0
  6 23  1  0
  6  7  1  0
  7  8  2  0
  7  9  1  0
  9 10  1  0
  9 15  1  0
 10 14  1  0
 10 11  1  0
 11 12  1  0
 12 13  1  0
 13 14  1  0
 15 16  2  0
 15 23  1  0
 16 17  1  0
 17 22  1  0
 17 18  2  0
 18 19  1  0
 19 20  2  0
 20 21  1  0
 21 22  2  0
 24 25  1  0
 24 26  1  0
 26 27  1  0
 27 32  1  0
 27 28  2  0
 28 29  1  0
 29 30  2  0
 30 31  1  0
 30 33  1  0
 31 32  2  0
 33 34  1  0
 33 35  1  0
 33 36  1  0
M  END
> <Name>
(2Z,5Z)-3-cyclopentyl-5-((2,5-dimethyl-1-(4-(trifluoromethyl)phenyl)-1H-pyrrol-3-yl)methylene)-2-(phenylimino)thiazolidin-4-one

> <OSM_ID>
OSM-S-54

> <Sample_ID>
ZYH 22-3

> <ChEMBL>
dep1

> <3D7_IC50_nM_Ralph>
520.1

> <3D7_IC50_nM_GSK>
276

> <Kinetic_solubility_pH2_ug_per_mL>
0-1.6

> <Kinetic_solubilitiy_pH6.5_ug_per_mL>
0-1.6

> <In_vitro_CLint_uL_min_mg_protein>
14

> <Degradation_half_life _mins>
121

> <Degradation_rate_classification>
moderate

> <link>
http://malaria.ourexperiment.org/osm_procedures/7121/Preparation_of_OSMS54.html

> <3D7_IC50_nM_Avery>
34

> <Series Tag>
Series 1

$$$$
(2Z,5E)-5-benzylidene-2-(phenylimino)thiazolidin-4-one
  SciTegic10081310362D

 20 22  0  0  0  0            999 V2000
    1.2990   -0.7500    0.0000 C   0  0
    0.0000   -1.5000    0.0000 C   0  0
   -1.2990   -0.7500    0.0000 C   0  0
   -1.2990    0.7500    0.0000 C   0  0
    0.0000    1.5000    0.0000 C   0  0
    1.2990    0.7500    0.0000 C   0  0
   -2.5973    1.5031    0.0000 C   0  0
   -2.5951    3.0039    0.0000 C   0  0
   -3.8056    3.8679    0.0000 C   0  0
   -3.3372    5.2929    0.0000 N   0  0
   -1.8372    5.2877    0.0000 C   0  0
   -0.9498    6.4949    0.0000 N   0  0
    0.5420    6.3307    0.0000 C   0  0
    1.1427    4.9561    0.0000 C   0  0
    2.6333    4.7890    0.0000 C   0  0
    3.5234    5.9964    0.0000 C   0  0
    2.9228    7.3709    0.0000 C   0  0
    1.4322    7.5380    0.0000 C   0  0
   -1.3786    3.8595    0.0000 S   0  0
   -4.9460    3.4943    0.0000 O   0  0
  1  6  1  0
  1  2  2  0
  2  3  1  0
  3  4  2  0
  4  5  1  0
  4  7  1  0
  5  6  2  0
  7  8  2  0
  8 19  1  0
  8  9  1  0
  9 10  1  0
  9 20  2  0
 10 11  1  0
 11 12  2  0
 11 19  1  0
 12 13  1  0
 13 18  1  0
 13 14  2  0
 14 15  1  0
 15 16  2  0
 16 17  1  0
 17 18  2  0
M  END
> <Name>
(2Z,5E)-5-benzylidene-2-(phenylimino)thiazolidin-4-one

> <OSM_ID>
OSM-S-55

> <Sample_ID>
ZYH 23-1

> <ChEMBL>
dep1

> <3D7_IC50_nM_Ralph>
>1000

> <3D7_IC50_nM_GSK>
>5000

> <link>
http://malaria.ourexperiment.org/osm_procedures/7122/Preparation_of_OSMS55.html

> <3D7_IC50_nM_Avery>
could not determine

$$$$
3-(N-(4-chlorobenzyl)sulfamoyl)-N,N-dimethyl-1H-1,2,4-triazole-1-carboxamide
  SciTegic10081310362D

 21 22  0  0  0  0            999 V2000
    1.2990   -0.7500    0.0000 C   0  0
    1.2990    0.7500    0.0000 C   0  0
    0.0000    1.5000    0.0000 C   0  0
   -1.2990    0.7500    0.0000 C   0  0
   -1.2990   -0.7500    0.0000 C   0  0
    0.0000   -1.5000    0.0000 C   0  0
    0.0031   -3.0008    0.0000 N   0  0
    1.3039   -3.7494    0.0000 S   0  0
    2.3421   -3.1476    0.0000 O   0  0
    1.3020   -2.5494    0.0000 O   0  0
    1.3070   -5.2502    0.0000 C   0  0
    0.0953   -6.1124    0.0000 N   0  0
    0.5617   -7.5381    0.0000 N   0  0
    2.0617   -7.5350    0.0000 C   0  0
    2.5223   -6.1074    0.0000 N   0  0
   -0.3139   -8.7538    0.0000 C   0  0
   -1.5078   -8.6329    0.0000 O   0  0
    0.3013  -10.1227    0.0000 N   0  0
   -0.4000  -11.0965    0.0000 C   0  0
    1.4952  -10.2436    0.0000 C   0  0
   -1.0351   -3.6026    0.0000 C   0  0
  1  2  2  0
  2  3  1  0
  3  4  2  0
  4  5  1  0
  5  6  2  0
  6  1  1  0
  7  8  1  0
  8  9  2  0
  8 10  2  0
  8 11  1  0
 11 12  2  0
 12 13  1  0
 13 14  1  0
 14 15  2  0
 15 11  1  0
 13 16  1  0
 16 17  2  0
 16 18  1  0
 18 19  1  0
 18 20  1  0
  6  7  1  0
  7 21  1  0
M  END
> <Name>
3-(N-(4-chlorobenzyl)sulfamoyl)-N,N-dimethyl-1H-1,2,4-triazole-1-carboxamide

> <OSM_ID>
OSM-S-56

> <Sample_ID>
JRC 12-4(a)

> <ChEMBL>
dep2

> <link>
http://malaria.ourexperiment.org/osm_procedures/7126/Preparation_of_OSMS56.html

> <3D7_IC50_nM_Avery>
333

> <Series Tag>
Series 2

$$$$
2-amino-2-oxoethyl 5-methyl-1-phenyl-1H-pyrazole-4-carboxylate
  SciTegic10081310362D

 19 20  0  0  0  0            999 V2000
    1.2990   -0.7500    0.0000 C   0  0
    1.2990    0.7500    0.0000 C   0  0
    0.0000    1.5000    0.0000 C   0  0
   -1.2990    0.7500    0.0000 C   0  0
   -1.2990   -0.7500    0.0000 C   0  0
    0.0000   -1.5000    0.0000 C   0  0
   -2.5987    1.5004    0.0000 N   0  0
   -3.9492    0.8772    0.0000 N   0  0
   -4.9546    1.9903    0.0000 C   0  0
   -4.2067    3.2905    0.0000 C   0  0
   -2.7390    2.9810    0.0000 C   0  0
   -4.8211    4.6570    0.0000 C   0  0
   -4.1190    5.6302    0.0000 O   0  0
   -6.3142    4.8094    0.0000 O   0  0
   -6.9296    6.1782    0.0000 C   0  0
   -8.4227    6.3306    0.0000 C   0  0
   -8.9148    7.4250    0.0000 O   0  0
   -9.1248    5.3574    0.0000 N   0  0
   -1.8437    3.7801    0.0000 C   0  0
  1  2  2  0
  2  3  1  0
  3  4  2  0
  4  5  1  0
  5  6  2  0
  6  1  1  0
  4  7  1  0
  7  8  1  0
  8  9  2  0
  9 10  1  0
 10 11  2  0
 11  7  1  0
 10 12  1  0
 12 13  2  0
 12 14  1  0
 14 15  1  0
 15 16  1  0
 16 17  2  0
 16 18  1  0
 11 19  1  0
M  END
> <Name>
2-amino-2-oxoethyl 5-methyl-1-phenyl-1H-pyrazole-4-carboxylate

> <OSM_ID>
OSM-S-57

> <Sample_ID>
PMY 50-1

> <ChEMBL>
dep2

> <link>
http://malaria.ourexperiment.org/osm_procedures/7127/Preparation_of_OSMS57.html

> <3D7_IC50_nM_Avery>
>40000

> <Series Tag>
Series 1

$$$$
2-(((1-(4-fluorophenyl)-2,5-dimethyl-1H-pyrrol-3-yl)methyl)amino)acetamide
  SciTegic10081310362D

 20 21  0  0  0  0            999 V2000
    4.9531   -1.9978    0.0000 C   0  0
    3.9511   -0.8815    0.0000 C   0  0
    2.5987   -1.5004    0.0000 N   0  0
    2.7343   -2.9815    0.0000 C   0  0
    4.2010   -3.2956    0.0000 C   0  0
    1.2990   -0.7500    0.0000 C   0  0
    1.2990    0.7500    0.0000 C   0  0
    0.0000    1.5000    0.0000 C   0  0
   -1.2990    0.7500    0.0000 C   0  0
   -1.2990   -0.7500    0.0000 C   0  0
    0.0000   -1.5000    0.0000 C   0  0
   -2.3383    1.3500    0.0000 F   0  0
    6.4437   -1.8466    0.0000 C   0  0
    7.3221   -3.0635    0.0000 N   0  0
    8.8153   -2.9121    0.0000 C   0  0
    9.6938   -4.1290    0.0000 C   0  0
    9.2020   -5.2236    0.0000 N   0  0
   10.8877   -4.0079    0.0000 O   0  0
    4.1955    0.2934    0.0000 C   0  0
    1.8365   -3.7777    0.0000 C   0  0
  1  2  2  0
  2  3  1  0
  3  4  1  0
  4  5  2  0
  5  1  1  0
  3  6  1  0
  6  7  2  0
  7  8  1  0
  8  9  2  0
  9 10  1  0
 10 11  2  0
 11  6  1  0
  9 12  1  0
  1 13  1  0
 13 14  1  0
 14 15  1  0
 15 16  1  0
 16 17  1  0
 16 18  2  0
  2 19  1  0
  4 20  1  0
M  END
> <Name>
2-(((1-(4-fluorophenyl)-2,5-dimethyl-1H-pyrrol-3-yl)methyl)amino)acetamide

> <OSM_ID>
OSM-S-58

> <Sample_ID>
PMY 38-5-B

> <ChEMBL>
dep2

> <3D7_IC50_nM_Avery>
>40000

> <link>
http://malaria.ourexperiment.org/osm_procedures/7138/Preparation_of_OSMS58.html

> <Series Tag>
Series 1

$$$$
N-(2-amino-2-oxoethyl)-1-(4-fluorophenyl)-N,2,5-trimethyl-1H-pyrrole-3-carboxamide
  SciTegic10081310362D

 22 23  0  0  0  0            999 V2000
    4.9531   -1.9978    0.0000 C   0  0
    3.9511   -0.8815    0.0000 C   0  0
    2.5987   -1.5004    0.0000 N   0  0
    2.7343   -2.9815    0.0000 C   0  0
    4.2010   -3.2956    0.0000 C   0  0
    1.2990   -0.7500    0.0000 C   0  0
    1.2990    0.7500    0.0000 C   0  0
    0.0000    1.5000    0.0000 C   0  0
   -1.2990    0.7500    0.0000 C   0  0
   -1.2990   -0.7500    0.0000 C   0  0
    0.0000   -1.5000    0.0000 C   0  0
   -2.3383    1.3500    0.0000 F   0  0
    6.4437   -1.8466    0.0000 C   0  0
    7.3221   -3.0635    0.0000 N   0  0
    8.8153   -2.9121    0.0000 C   0  0
    9.6938   -4.1290    0.0000 C   0  0
    9.2020   -5.2236    0.0000 N   0  0
   10.8877   -4.0079    0.0000 O   0  0
    4.1955    0.2934    0.0000 C   0  0
    1.8365   -3.7777    0.0000 C   0  0
    6.9354   -0.7520    0.0000 O   0  0
    6.8304   -4.1581    0.0000 C   0  0
  1  2  2  0
  2  3  1  0
  3  4  1  0
  4  5  2  0
  5  1  1  0
  3  6  1  0
  6  7  2  0
  7  8  1  0
  8  9  2  0
  9 10  1  0
 10 11  2  0
 11  6  1  0
  9 12  1  0
  1 13  1  0
 13 14  1  0
 14 15  1  0
 15 16  1  0
 16 17  1  0
 16 18  2  0
  2 19  1  0
  4 20  1  0
 13 21  2  0
 14 22  1  0
M  END
> <Name>
N-(2-amino-2-oxoethyl)-1-(4-fluorophenyl)-N,2,5-trimethyl-1H-pyrrole-3-carboxamide

> <OSM_ID>
OSM-S-59

> <Sample_ID>
PMY 55-1

> <ChEMBL>
dep2

> <3D7_IC50_nM_Avery>
>40000

> <link>
http://malaria.ourexperiment.org/osm_procedures/7140/Preparation_of_OSMS59.html

> <Series Tag>
Series 1

$$$$
2-(((1-(4-fluorophenyl)-2,5-dimethyl-1H-pyrrol-3-yl)methyl)(methyl)amino)acetamide
  SciTegic10081310362D

 21 22  0  0  0  0            999 V2000
    4.9531   -1.9978    0.0000 C   0  0
    3.9511   -0.8815    0.0000 C   0  0
    2.5987   -1.5004    0.0000 N   0  0
    2.7343   -2.9815    0.0000 C   0  0
    4.2010   -3.2956    0.0000 C   0  0
    1.2990   -0.7500    0.0000 C   0  0
    1.2990    0.7500    0.0000 C   0  0
    0.0000    1.5000    0.0000 C   0  0
   -1.2990    0.7500    0.0000 C   0  0
   -1.2990   -0.7500    0.0000 C   0  0
    0.0000   -1.5000    0.0000 C   0  0
   -2.3383    1.3500    0.0000 F   0  0
    6.4437   -1.8466    0.0000 C   0  0
    7.3221   -3.0635    0.0000 N   0  0
    8.8153   -2.9121    0.0000 C   0  0
    9.6938   -4.1290    0.0000 C   0  0
    9.2020   -5.2236    0.0000 N   0  0
   10.8877   -4.0079    0.0000 O   0  0
    4.1955    0.2934    0.0000 C   0  0
    1.8365   -3.7777    0.0000 C   0  0
    6.8304   -4.1581    0.0000 C   0  0
  1  2  2  0
  2  3  1  0
  3  4  1  0
  4  5  2  0
  5  1  1  0
  3  6  1  0
  6  7  2  0
  7  8  1  0
  8  9  2  0
  9 10  1  0
 10 11  2  0
 11  6  1  0
  9 12  1  0
  1 13  1  0
 13 14  1  0
 14 15  1  0
 15 16  1  0
 16 17  1  0
 16 18  2  0
  2 19  1  0
  4 20  1  0
 14 21  1  0
M  END
> <Name>
2-(((1-(4-fluorophenyl)-2,5-dimethyl-1H-pyrrol-3-yl)methyl)(methyl)amino)acetamide

> <OSM_ID>
OSM-S-60

> <Sample_ID>
PMY 56-1

> <ChEMBL>
dep2

> <3D7_IC50_nM_Avery>
>40000

> <link>
http://malaria.ourexperiment.org/osm_procedures/7141/Preparation_of_OSMS60.html

> <Series Tag>
Series 1

$$$$
methyl 2-(1-(4-fluorophenyl)-2,5-dimethyl-1H-pyrrole-3-carboxamido)-3-hydroxypr
  SciTegic10081310362D

 24 25  0  0  0  0            999 V2000
    4.9531   -1.9978    0.0000 C   0  0
    3.9511   -0.8815    0.0000 C   0  0
    2.5987   -1.5004    0.0000 N   0  0
    2.7343   -2.9815    0.0000 C   0  0
    4.2010   -3.2956    0.0000 C   0  0
    1.2990   -0.7500    0.0000 C   0  0
    1.2990    0.7500    0.0000 C   0  0
    0.0000    1.5000    0.0000 C   0  0
   -1.2990    0.7500    0.0000 C   0  0
   -1.2990   -0.7500    0.0000 C   0  0
    0.0000   -1.5000    0.0000 C   0  0
   -2.3383    1.3500    0.0000 F   0  0
    6.4437   -1.8466    0.0000 C   0  0
    7.3221   -3.0635    0.0000 N   0  0
    8.8153   -2.9121    0.0000 C   0  0  2  0  0  0
    9.6938   -4.1290    0.0000 C   0  0
   11.1870   -3.9775    0.0000 O   0  0
    9.2020   -5.2236    0.0000 O   0  0
    4.1955    0.2934    0.0000 C   0  0
    1.8365   -3.7777    0.0000 C   0  0
    6.9354   -0.7520    0.0000 O   0  0
    9.4332   -1.5443    0.0000 C   0  0
   10.6272   -1.4246    0.0000 O   0  0
   11.8894   -4.9505    0.0000 C   0  0
  1  2  2  0
  2  3  1  0
  3  4  1  0
  4  5  2  0
  5  1  1  0
  3  6  1  0
  6  7  2  0
  7  8  1  0
  8  9  2  0
  9 10  1  0
 10 11  2  0
 11  6  1  0
  9 12  1  0
  1 13  1  0
 13 14  1  0
 15 14  1  1
 15 16  1  0
 16 17  1  0
 16 18  2  0
  2 19  1  0
  4 20  1  0
 13 21  2  0
 15 22  1  0
 22 23  1  0
 17 24  1  0
M  END
> <Name>
methyl 2-(1-(4-fluorophenyl)-2,5-dimethyl-1H-pyrrole-3-carboxamido)-3-hydroxypr

> <OSM_ID>
OSM-S-61

> <Sample_ID>
PMY 57-1

> <ChEMBL>
dep2

> <3D7_IC50_nM_Avery>
>40000

> <link>
http://malaria.ourexperiment.org/osm_procedures/7142/Preparation_of_OSMS61.html

> <Series Tag>
Series 1

$$$$
methyl 2-(1-(4-fluorophenyl)-2,5-dimethyl-1H-pyrrol-3-yl)oxazole-4-carboxylate
  SciTegic10081310362D

 23 25  0  0  0  0            999 V2000
    4.9531   -1.9978    0.0000 C   0  0
    3.9511   -0.8815    0.0000 C   0  0
    2.5987   -1.5004    0.0000 N   0  0
    2.7343   -2.9815    0.0000 C   0  0
    4.2010   -3.2956    0.0000 C   0  0
    1.2990   -0.7500    0.0000 C   0  0
    1.2990    0.7500    0.0000 C   0  0
    0.0000    1.5000    0.0000 C   0  0
   -1.2990    0.7500    0.0000 C   0  0
   -1.2990   -0.7500    0.0000 C   0  0
    0.0000   -1.5000    0.0000 C   0  0
   -2.3383    1.3500    0.0000 F   0  0
    6.4458   -1.8433    0.0000 C   0  0
    7.2720   -0.6124    0.0000 N   0  0
    8.7097   -1.0403    0.0000 C   0  0
    9.9014   -0.1323    0.0000 C   0  0
   11.2864   -0.7105    0.0000 O   0  0
    9.7485    1.0579    0.0000 O   0  0
    4.1955    0.2934    0.0000 C   0  0
    1.8365   -3.7777    0.0000 C   0  0
    7.3323   -3.0387    0.0000 O   0  0
    8.7469   -2.5399    0.0000 C   0  0
   12.2409    0.0167    0.0000 C   0  0
  1  2  2  0
  2  3  1  0
  3  4  1  0
  4  5  2  0
  5  1  1  0
  3  6  1  0
  6  7  2  0
  7  8  1  0
  8  9  2  0
  9 10  1  0
 10 11  2  0
 11  6  1  0
  9 12  1  0
  1 13  1  0
 13 14  2  0
 14 15  1  0
 15 16  1  0
 16 17  1  0
 16 18  2  0
  2 19  1  0
  4 20  1  0
 15 22  2  0
 17 23  1  0
 22 21  1  0
 13 21  1  0
M  END
> <Name>
methyl 2-(1-(4-fluorophenyl)-2,5-dimethyl-1H-pyrrol-3-yl)oxazole-4-carboxylate

> <OSM_ID>
OSM-S-62

> <Sample_ID>
PMY 58-1-A

> <ChEMBL>
dep2

> <3D7_IC50_nM_Avery>
>40000

> <link>
http://malaria.ourexperiment.org/osm_procedures/7143/Preparation_of_OSMS62.html

> <Series Tag>
Series 1

$$$$
methyl 2-(1-(4-fluorophenyl)-2,5-dimethyl-1H-pyrrol-3-yl)-4,5-dihydrooxazole-4-
  SciTegic10081310362D

 23 25  0  0  0  0            999 V2000
    4.9531   -1.9978    0.0000 C   0  0
    3.9511   -0.8815    0.0000 C   0  0
    2.5987   -1.5004    0.0000 N   0  0
    2.7343   -2.9815    0.0000 C   0  0
    4.2010   -3.2956    0.0000 C   0  0
    1.2990   -0.7500    0.0000 C   0  0
    1.2990    0.7500    0.0000 C   0  0
    0.0000    1.5000    0.0000 C   0  0
   -1.2990    0.7500    0.0000 C   0  0
   -1.2990   -0.7500    0.0000 C   0  0
    0.0000   -1.5000    0.0000 C   0  0
   -2.3383    1.3500    0.0000 F   0  0
    6.4458   -1.8433    0.0000 C   0  0
    7.2720   -0.6124    0.0000 N   0  0
    8.7097   -1.0403    0.0000 C   0  0  2  0  0  0
    9.9014   -0.1323    0.0000 C   0  0
   11.2864   -0.7105    0.0000 O   0  0
    9.7485    1.0579    0.0000 O   0  0
    4.1955    0.2934    0.0000 C   0  0
    1.8365   -3.7777    0.0000 C   0  0
    7.3323   -3.0387    0.0000 O   0  0
    8.7469   -2.5399    0.0000 C   0  0
   12.2409    0.0167    0.0000 C   0  0
  1  2  2  0
  2  3  1  0
  3  4  1  0
  4  5  2  0
  5  1  1  0
  3  6  1  0
  6  7  2  0
  7  8  1  0
  8  9  2  0
  9 10  1  0
 10 11  2  0
 11  6  1  0
  9 12  1  0
  1 13  1  0
 13 14  2  0
 14 15  1  0
 15 16  1  6
 16 17  1  0
 16 18  2  0
  2 19  1  0
  4 20  1  0
 15 22  1  0
 17 23  1  0
 22 21  1  0
 13 21  1  0
M  END
> <Name>
methyl 2-(1-(4-fluorophenyl)-2,5-dimethyl-1H-pyrrol-3-yl)-4,5-dihydrooxazole-4-

> <OSM_ID>
OSM-S-63

> <ChEMBL>
dep2

> <3D7_IC50_nM_Avery>
>40000

> <Sample_ID>
PMY 58-1

> <link>
http://malaria.ourexperiment.org/osm_procedures/7144/Preparation_of_OSMS63.html

> <Series Tag>
Series 1

$$$$
4-(thieno[3,2-d]pyrimidin-4-yl)morpholine
  SciTegic10081310362D

 15 17  0  0  0  0            999 V2000
   -0.9982   -3.0140    0.0000 N   0  0
   -2.2894   -3.7767    0.0000 C   0  0
   -2.2745   -5.2767    0.0000 C   0  0
   -0.9680   -6.0137    0.0000 O   0  0
    0.3235   -5.2508    0.0000 C   0  0
    0.3086   -3.7509    0.0000 C   0  0
   -2.3155    0.7475    0.0000 C   0  0
   -1.0028    1.5132    0.0000 N   0  0
    0.2917    0.7475    0.0000 C   0  0
    0.2917   -0.7475    0.0000 C   0  0
   -1.0028   -1.5132    0.0000 C   0  0
   -2.3155   -0.7475    0.0000 N   0  0
    1.7138    1.2033    0.0000 C   0  0
    2.5889    0.0182    0.0000 C   0  0
    1.7138   -1.2033    0.0000 S   0  0
  1  2  1  0
  2  3  1  0
  3  4  1  0
  4  5  1  0
  5  6  1  0
  1  6  1  0
  7  8  1  0
  8  9  2  0
  9 10  1  0
 10 11  2  0
 11 12  1  0
  7 12  2  0
 13 14  2  0
 14 15  1  0
  9 13  1  0
 10 15  1  0
  1 11  1  0
M  END
> <Name>
4-(thieno[3,2-d]pyrimidin-4-yl)morpholine

> <OSM_ID>
OSM-S-64

> <Sample_ID>
JRC 17-1

> <ChEMBL>
dep2

> <3D7_IC50_nM_Avery>
>40000

> <link>
http://malaria.ourexperiment.org/osm_procedures/7145/Preparation_of_OSMS64.html

> <Series Tag>
Series 3

$$$$
6-iodothieno[3,2-d]pyrimidin-4-ol
  SciTegic10081310362D

 11 12  0  0  0  0            999 V2000
   -0.9991   -2.7132    0.0000 O   0  0
   -2.3155    0.7475    0.0000 C   0  0
   -1.0028    1.5132    0.0000 N   0  0
    0.2917    0.7475    0.0000 C   0  0
    0.2917   -0.7475    0.0000 C   0  0
   -1.0028   -1.5132    0.0000 C   0  0
   -2.3155   -0.7475    0.0000 N   0  0
    1.7138    1.2033    0.0000 C   0  0
    2.5889    0.0182    0.0000 C   0  0
    1.7138   -1.2033    0.0000 S   0  0
    3.7889    0.0269    0.0000 I   0  0
  2  3  1  0
  3  4  2  0
  4  5  1  0
  5  6  2  0
  6  7  1  0
  2  7  2  0
  8  9  2  0
  9 10  1  0
  4  8  1  0
  5 10  1  0
  1  6  1  0
  9 11  1  0
M  END
> <Name>
6-iodothieno[3,2-d]pyrimidin-4-ol

> <OSM_ID>
OSM-S-65

> <Sample_ID>
JRC 20-3

> <ChEMBL>
dep2

> <3D7_IC50_nM_Avery>
>40000

> <link>
http://malaria.ourexperiment.org/osm_procedures/7146/Preparation_of_OSMS65.html

> <Series Tag>
Series 3

$$$$
3-(benzylthio)-1H-1,2,4-triazole
  SciTegic10081310362D

 13 14  0  0  0  0            999 V2000
    1.2990   -0.7500    0.0000 C   0  0
    1.2990    0.7500    0.0000 C   0  0
    0.0000    1.5000    0.0000 C   0  0
   -1.2990    0.7500    0.0000 C   0  0
   -1.2990   -0.7500    0.0000 C   0  0
    0.0000   -1.5000    0.0000 C   0  0
   -2.6003    1.4977    0.0000 C   0  0
   -3.8990    0.7455    0.0000 S   0  0
   -5.2003    1.4932    0.0000 C   0  0
   -6.5517    0.8722    0.0000 N   0  0
   -7.5554    1.9869    0.0000 N   0  0
   -6.8054    3.2859    0.0000 C   0  0
   -5.3382    2.9741    0.0000 N   0  0
  1  2  2  0
  2  3  1  0
  3  4  2  0
  4  5  1  0
  5  6  2  0
  6  1  1  0
  4  7  1  0
  7  8  1  0
  8  9  1  0
  9 10  2  0
 10 11  1  0
 11 12  1  0
 12 13  2  0
 13  9  1  0
M  END
> <Name>
3-(benzylthio)-1H-1,2,4-triazole

> <OSM_ID>
OSM-S-66

> <Sample_ID>
JRC 6-5

> <ChEMBL>
dep2

> <3D7_IC50_nM_Avery>
>40000

> <link>
http://malaria.ourexperiment.org/osm_procedures/7147/Preparation_of_OSMS66.html

> <Series Tag>
Series 2

$$$$
3-(benzylthio)-N,N-dimethyl-1H-1,2,4-triazole-1-carboxamide
  SciTegic10081310362D

 18 19  0  0  0  0            999 V2000
    1.2990   -0.7500    0.0000 C   0  0
    1.2990    0.7500    0.0000 C   0  0
    0.0000    1.5000    0.0000 C   0  0
   -1.2990    0.7500    0.0000 C   0  0
   -1.2990   -0.7500    0.0000 C   0  0
    0.0000   -1.5000    0.0000 C   0  0
   -2.6003    1.4977    0.0000 C   0  0
   -3.8990    0.7455    0.0000 S   0  0
   -5.2003    1.4932    0.0000 C   0  0
   -6.5517    0.8722    0.0000 N   0  0
   -7.5554    1.9869    0.0000 N   0  0
   -6.8054    3.2859    0.0000 C   0  0
   -5.3382    2.9741    0.0000 N   0  0
   -9.0458    1.8333    0.0000 C   0  0
   -9.5358    0.7379    0.0000 O   0  0
   -9.9262    3.0488    0.0000 N   0  0
  -11.1199    2.9258    0.0000 C   0  0
   -9.4362    4.1442    0.0000 C   0  0
  1  2  2  0
  2  3  1  0
  3  4  2  0
  4  5  1  0
  5  6  2  0
  6  1  1  0
  4  7  1  0
  7  8  1  0
  8  9  1  0
  9 10  2  0
 10 11  1  0
 11 12  1  0
 12 13  2  0
 13  9  1  0
 11 14  1  0
 14 15  2  0
 14 16  1  0
 16 17  1  0
 16 18  1  0
M  END
> <Name>
3-(benzylthio)-N,N-dimethyl-1H-1,2,4-triazole-1-carboxamide

> <OSM_ID>
OSM-S-67

> <Sample_ID>
JRC 10-5

> <ChEMBL>
dep2

> <3D7_IC50_nM_Avery>
438

> <link>
http://malaria.ourexperiment.org/osm_procedures/7148/Preparation_of_OSMS67.html

> <Series Tag>
Series 2

$$$$
1-amino-2-methyl-1-oxopropan-2-yl 1-(4-fluorophenyl)-2,5-dimethyl-1H-pyrrole-3-carboxylate
  SciTegic10081310362D

 23 24  0  0  0  0            999 V2000
    4.9531   -1.9978    0.0000 C   0  0
    3.9511   -0.8815    0.0000 C   0  0
    2.5987   -1.5004    0.0000 N   0  0
    2.7343   -2.9815    0.0000 C   0  0
    4.2010   -3.2956    0.0000 C   0  0
    1.2990   -0.7500    0.0000 C   0  0
    1.2990    0.7500    0.0000 C   0  0
    0.0000    1.5000    0.0000 C   0  0
   -1.2990    0.7500    0.0000 C   0  0
   -1.2990   -0.7500    0.0000 C   0  0
    0.0000   -1.5000    0.0000 C   0  0
   -2.3383    1.3500    0.0000 F   0  0
    6.4437   -1.8466    0.0000 C   0  0
    7.3221   -3.0635    0.0000 O   0  0
    8.8153   -2.9121    0.0000 C   0  0
    9.6938   -4.1290    0.0000 C   0  0
    9.2020   -5.2236    0.0000 N   0  0
   10.8877   -4.0079    0.0000 O   0  0
    4.1955    0.2934    0.0000 C   0  0
    1.8365   -3.7777    0.0000 C   0  0
    6.9354   -0.7520    0.0000 O   0  0
    9.3071   -1.8175    0.0000 C   0  0
    8.1134   -1.9388    0.0000 C   0  0
  1  2  2  0
  2  3  1  0
  3  4  1  0
  4  5  2  0
  5  1  1  0
  3  6  1  0
  6  7  2  0
  7  8  1  0
  8  9  2  0
  9 10  1  0
 10 11  2  0
 11  6  1  0
  9 12  1  0
  1 13  1  0
 13 14  1  0
 14 15  1  0
 15 16  1  0
 16 17  1  0
 16 18  2  0
  2 19  1  0
  4 20  1  0
 13 21  2  0
 15 22  1  0
 15 23  1  0
M  END
> <Name>
1-amino-2-methyl-1-oxopropan-2-yl 1-(4-fluorophenyl)-2,5-dimethyl-1H-pyrrole-3-carboxylate

> <OSM_ID>
OSM-S-68

> <Sample_ID>
MD 5-1

> <ChEMBL>
dep2

> <3D7_IC50_nM_Avery>
>40000

> <link>
http://malaria.ourexperiment.org/osm_procedures/7149/Preparation_of_OSMS68.html

> <Series Tag>
Series 1

$$$$
methyl 3-formamidothiophene-2-carboxylate
  SciTegic10081310362D

 12 12  0  0  0  0            999 V2000
    0.7500   -1.0323    0.0000 C   0  0
    1.2135    0.3943    0.0000 C   0  0
    0.0000    1.2760    0.0000 C   0  0
   -1.2135    0.3943    0.0000 S   0  0
   -0.7500   -1.0323    0.0000 C   0  0
    1.6332   -2.2426    0.0000 N   0  0
   -1.6332   -2.2426    0.0000 C   0  0
   -3.1255   -2.0835    0.0000 O   0  0
   -1.1470   -3.3397    0.0000 O   0  0
   -3.8329   -3.0529    0.0000 C   0  0
    3.1255   -2.0835    0.0000 C   0  0
    3.8329   -3.0529    0.0000 O   0  0
  1  2  1  0
  2  3  2  0
  3  4  1  0
  4  5  1  0
  5  1  2  0
  1  6  1  0
  5  7  1  0
  7  8  1  0
  7  9  2  0
  8 10  1  0
  6 11  1  0
 11 12  2  0
M  END
> <Name>
methyl 3-formamidothiophene-2-carboxylate

> <OSM_ID>
OSM-S-69

> <Sample_ID>
JRC15-3

> <ChEMBL>
dep2

> <3D7_IC50_nM_Avery>
>40000

> <link>
http://malaria.ourexperiment.org/osm_procedures/7150/Preparation_of_OSMS69.html

$$$$
4-chlorothieno[3,2-d]pyrimidine
  SciTegic10081310362D

 10 11  0  0  0  0            999 V2000
   -2.3155    0.7475    0.0000 N   0  0
   -2.3155   -0.7475    0.0000 C   0  0
   -1.0028   -1.5132    0.0000 N   0  0
    0.2917   -0.7475    0.0000 C   0  0
    0.2917    0.7475    0.0000 C   0  0
   -1.0028    1.5132    0.0000 C   0  0
    1.7138   -1.2033    0.0000 C   0  0
    2.5889    0.0182    0.0000 C   0  0
    1.7138    1.2033    0.0000 S   0  0
   -0.9991    2.7132    0.0000 Cl  0  0
  1  2  2  0
  2  3  1  0
  3  4  2  0
  4  5  1  0
  5  6  2  0
  6  1  1  0
  4  7  1  0
  7  8  2  0
  8  9  1  0
  9  5  1  0
  6 10  1  0
M  END
> <Name>
4-chlorothieno[3,2-d]pyrimidine

> <OSM_ID>
OSM-S-70

> <Sample_ID>
JRC13-3

> <ChEMBL>
dep2

> <3D7_IC50_nM_Avery>
94000

> <link>
http://malaria.ourexperiment.org/osm_procedures/7151/Preparation_of_OSMS70.html

> <Series Tag>
Series 3

$$$$
thieno[3,2-d]pyrimidin-4-amine
  SciTegic10081310362D

 10 11  0  0  0  0            999 V2000
   -2.3155    0.7475    0.0000 N   0  0
   -2.3155   -0.7475    0.0000 C   0  0
   -1.0028   -1.5132    0.0000 N   0  0
    0.2917   -0.7475    0.0000 C   0  0
    0.2917    0.7475    0.0000 C   0  0
   -1.0028    1.5132    0.0000 C   0  0
    1.7138   -1.2033    0.0000 C   0  0
    2.5889    0.0182    0.0000 C   0  0
    1.7138    1.2033    0.0000 S   0  0
   -0.9991    2.7132    0.0000 N   0  0
  1  2  2  0
  2  3  1  0
  3  4  2  0
  4  5  1  0
  5  6  2  0
  6  1  1  0
  4  7  1  0
  7  8  2  0
  8  9  1  0
  9  5  1  0
  6 10  1  0
M  END
> <Name>
thieno[3,2-d]pyrimidin-4-amine

> <OSM_ID>
OSM-S-71

> <Sample_ID>
JRC 14-5

> <ChEMBL>
dep2

> <3D7_IC50_nM_Avery>
>40000

> <link>
http://malaria.ourexperiment.org/osm_procedures/7152/Preparation_of_OSMS71.html

> <Series Tag>
Series 3

$$$$
N-(6-phenylthieno[2,3-d]pyrimidin-4-yl)benzenesulfonamide
  SciTegic10081310362D

 25 28  0  0  0  0            999 V2000
   -2.2935    3.7700    0.0000 S   0  0
    0.2917    0.7475    0.0000 C   0  0
   -0.9971    3.0138    0.0000 N   0  0
   -1.0028    1.5132    0.0000 C   0  0
    0.2917   -0.7475    0.0000 C   0  0
    1.7138    1.2033    0.0000 C   0  0
    1.7138   -1.2033    0.0000 S   0  0
    2.5889    0.0182    0.0000 C   0  0
   -1.0028   -1.5132    0.0000 N   0  0
   -2.3155    0.7475    0.0000 N   0  0
   -3.3352    3.1743    0.0000 O   0  0
   -2.2987    2.5700    0.0000 O   0  0
   -2.2878    5.2708    0.0000 C   0  0
   -2.3155   -0.7475    0.0000 C   0  0
    4.0896    0.0290    0.0000 C   0  0
   -0.9859    6.0158    0.0000 C   0  0
   -3.5840    6.0257    0.0000 C   0  0
    4.9397   -1.2009    0.0000 C   0  0
    4.7275    1.3885    0.0000 C   0  0
    6.2225    1.5110    0.0000 C   0  0
   -0.9802    7.5158    0.0000 C   0  0
   -3.5782    7.5257    0.0000 C   0  0
    6.4347   -1.0783    0.0000 C   0  0
    7.0761    0.2776    0.0000 C   0  0
   -2.2764    8.2707    0.0000 C   0  0
  2  4  2  0
  3  1  1  0
  4  3  1  0
  5  2  1  0
  6  2  1  0
  7  5  1  0
  8  6  2  0
  9  5  2  0
 10  4  1  0
 11  1  2  0
 12  1  2  0
 13  1  1  0
 14 10  2  0
 15  8  1  0
 16 13  1  0
 17 13  2  0
 18 15  2  0
 19 15  1  0
 20 19  2  0
 21 16  2  0
 22 17  1  0
 23 18  1  0
 24 23  2  0
 25 22  2  0
 25 21  1  0
  9 14  1  0
  8  7  1  0
 24 20  1  0
M  END
> <Name>
N-(6-phenylthieno[2,3-d]pyrimidin-4-yl)benzenesulfonamide

> <Catalog No.>
Z31210525

> <OSM_ID>
OSM-S-72

> <Sample_ID>
Z31210525

> <ChEMBL>
dep2

> <3D7_IC50_nM_Avery>
>40000

> <link>
http://malaria.ourexperiment.org/osm_procedures/7153/Preparation_of_OSMS72.html

$$$$
N-(3-hydrosulfonyl-4-methylphenyl)thieno[3,2-d]pyrimidin-4-amine
  SciTegic10081310362D

 23 25  0  0  0  0            999 V2000
   -3.5838    7.5239    0.0000 S   0  0
   -3.5873    6.0231    0.0000 C   0  0
   -1.0028    1.5132    0.0000 C   0  0
    0.2917    0.7475    0.0000 C   0  0
   -2.3155    0.7475    0.0000 N   0  0
   -2.2827    8.2720    0.0000 N   0  0
   -0.9971    3.0138    0.0000 N   0  0
    1.7138    1.2033    0.0000 S   0  0
    0.2917   -0.7475    0.0000 C   0  0
   -2.2900    5.2700    0.0000 C   0  0
   -4.6217    8.1260    0.0000 O   0  0
   -3.5815    8.7239    0.0000 O   0  0
    2.5889    0.0182    0.0000 C   0  0
    1.7138   -1.2033    0.0000 C   0  0
   -1.0028   -1.5132    0.0000 N   0  0
   -2.3155   -0.7475    0.0000 C   0  0
   -2.2935    3.7700    0.0000 C   0  0
   -4.8881    5.2761    0.0000 C   0  0
   -4.8917    3.7761    0.0000 C   0  0
   -3.5944    3.0231    0.0000 C   0  0
   -2.2799    9.4720    0.0000 C   0  0
   -1.2447    7.6699    0.0000 C   0  0
   -5.9259    5.8786    0.0000 C   0  0
  2  1  1  0
  3  7  1  0
  4  3  2  0
  5  3  1  0
  6  1  1  0
  7 17  1  0
  8  4  1  0
  9  4  1  0
 10  2  1  0
 11  1  2  0
 12  1  2  0
 13  8  1  0
 14  9  1  0
 15  9  2  0
 16  5  2  0
 17 10  2  0
 18  2  2  0
 19 18  1  0
 20 19  2  0
 21  6  1  0
 22  6  1  0
 23 18  1  0
 20 17  1  0
 15 16  1  0
 13 14  2  0
M  END
> <Name>
N-(3-hydrosulfonyl-4-methylphenyl)thieno[3,2-d]pyrimidin-4-amine

> <Catalog No.>
Z196131886

> <OSM_ID>
OSM-S-73

> <Sample_ID>
Z196131886

> <ChEMBL>
dep2

> <3D7_IC50_nM_Avery>
>40000

> <link>
http://malaria.ourexperiment.org/osm_procedures/7154/Preparation_of_OSMS73.html

> <Series Tag>
Series 3

$$$$
5-(((6-(4-methoxyphenyl)thieno[3,2-d]pyrimidin-4-yl)amino)methyl)-N-methylthiophene-2-sulfonamide
  SciTegic10081310362D

 29 32  0  0  0  0            999 V2000
   -3.8979    8.7788    0.0000 S   0  0
    1.7138    1.2033    0.0000 S   0  0
    0.2917    0.7475    0.0000 C   0  0
   -3.0243    7.5615    0.0000 C   0  0
    2.5889    0.0182    0.0000 C   0  0
    1.7138   -1.2033    0.0000 C   0  0
    0.2917   -0.7475    0.0000 C   0  0
   -3.4962    6.1377    0.0000 S   0  0
   -1.0028    1.5132    0.0000 C   0  0
   -1.5244    7.5527    0.0000 C   0  0
   -2.3155    0.7475    0.0000 N   0  0
   -2.2878    5.2708    0.0000 C   0  0
   -1.0028   -1.5132    0.0000 N   0  0
   -1.0692    6.1235    0.0000 C   0  0
   -0.9971    3.0138    0.0000 N   0  0
   -3.4030    9.8720    0.0000 O   0  0
   -4.5970    9.7541    0.0000 O   0  0
    4.0896    0.0290    0.0000 C   0  0
   -2.3155   -0.7475    0.0000 C   0  0
   -5.3915    8.6316    0.0000 N   0  0
   -2.2935    3.7700    0.0000 C   0  0
    4.9397   -1.2009    0.0000 C   0  0
    4.7275    1.3885    0.0000 C   0  0
    7.0761    0.2776    0.0000 C   0  0
    6.2225    1.5110    0.0000 C   0  0
    6.4347   -1.0783    0.0000 C   0  0
    8.5716    0.4033    0.0000 O   0  0
   -6.0911    9.6066    0.0000 C   0  0
    9.0832    1.4888    0.0000 C   0  0
  2  3  1  0
  3  9  2  0
  4  1  1  0
  5  2  1  0
  6  7  1  0
  7  3  1  0
  8  4  1  0
  9 15  1  0
 10  4  2  0
 11  9  1  0
 12  8  1  0
 13  7  2  0
 14 10  1  0
 15 21  1  0
 16  1  2  0
 17  1  2  0
 18  5  1  0
 19 11  2  0
 20  1  1  0
 21 12  1  0
 22 18  2  0
 23 18  1  0
 24 26  2  0
 25 23  2  0
 26 22  1  0
 27 24  1  0
 28 20  1  0
 29 27  1  0
 12 14  2  0
 13 19  1  0
  5  6  2  0
 24 25  1  0
M  END
> <Name>
5-(((6-(4-methoxyphenyl)thieno[3,2-d]pyrimidin-4-yl)amino)methyl)-N-methylthiophene-2-sulfonamide

> <Catalog No.>
Z217709300

> <OSM_ID>
OSM-S-74

> <Sample_ID>
Z217709300

> <ChEMBL>
dep2

> <3D7_IC50_nM_Avery>
17600

> <link>
http://malaria.ourexperiment.org/osm_procedures/7155/Preparation_of_OSMS74.html

> <Series Tag>
Series 3

$$$$
N-(1-((4-methoxyphenyl)sulfonyl)piperidin-4-yl)thieno[3,2-d]pyrimidin-4-amine
  SciTegic10081310362D

 27 30  0  0  0  0            999 V2000
   -6.1861    6.0296    0.0000 S   0  0
   -4.8881    5.2761    0.0000 N   0  0
   -1.0028    1.5132    0.0000 C   0  0
    0.2917    0.7475    0.0000 C   0  0
   -2.3155    0.7475    0.0000 N   0  0
   -7.4881    5.2831    0.0000 C   0  0
    1.7138    1.2033    0.0000 S   0  0
   -0.9971    3.0138    0.0000 N   0  0
    0.2917   -0.7475    0.0000 C   0  0
   -6.1829    7.2296    0.0000 O   0  0
   -5.1453    6.6270    0.0000 O   0  0
    2.5889    0.0182    0.0000 C   0  0
    1.7138   -1.2033    0.0000 C   0  0
   -1.0028   -1.5132    0.0000 N   0  0
   -2.3155   -0.7475    0.0000 C   0  0
   -4.8917    3.7761    0.0000 C   0  0
   -3.5873    6.0231    0.0000 C   0  0
   -2.2935    3.7700    0.0000 C   0  0
   -2.2900    5.2700    0.0000 C   0  0
   -3.5944    3.0231    0.0000 C   0  0
   -7.4926    3.7831    0.0000 C   0  0
   -8.7849    6.0371    0.0000 C   0  0
  -10.0907    3.7910    0.0000 C   0  0
   -8.7939    3.0371    0.0000 C   0  0
  -10.0862    5.2910    0.0000 C   0  0
  -11.3942    3.0472    0.0000 O   0  0
  -12.4308    3.6518    0.0000 C   0  0
  2  1  1  0
  3  8  1  0
  4  3  2  0
  5  3  1  0
  6  1  1  0
  7  4  1  0
  8 18  1  0
  9  4  1  0
 10  1  2  0
 11  1  2  0
 12  7  1  0
 13  9  1  0
 14  9  2  0
 15  5  2  0
 16  2  1  0
 17  2  1  0
 18 19  1  0
 19 17  1  0
 20 16  1  0
 21  6  2  0
 22  6  1  0
 23 24  2  0
 24 21  1  0
 25 22  2  0
 26 23  1  0
 27 26  1  0
 18 20  1  0
 25 23  1  0
 14 15  1  0
 12 13  2  0
M  END
> <Name>
N-(1-((4-methoxyphenyl)sulfonyl)piperidin-4-yl)thieno[3,2-d]pyrimidin-4-amine

> <Catalog No.>
Z229496652

> <OSM_ID>
OSM-S-75

> <Sample_ID>
Z229496652

> <ChEMBL>
dep2

> <3D7_IC50_nM_Avery>
>40000

> <link>
http://malaria.ourexperiment.org/osm_procedures/7156/Preparation_of_OSMS75.html

> <Series Tag>
Series 3

$$$$
(S)-3-(1-(thieno[3,2-d]pyrimidin-4-ylamino)ethyl)benzenesulfonamide
  SciTegic10081310362D

 22 24  0  0  0  0            999 V2000
   -4.8690    8.2864    0.0000 S   0  0
   -1.0028    1.5132    0.0000 C   0  0
    0.2917    0.7475    0.0000 C   0  0
   -0.9971    3.0138    0.0000 N   0  0
   -2.3155    0.7475    0.0000 N   0  0
   -3.5736    7.5284    0.0000 C   0  0
    1.7138    1.2033    0.0000 S   0  0
    0.2917   -0.7475    0.0000 C   0  0
   -3.5824    6.0284    0.0000 C   0  0
   -5.9121    7.6932    0.0000 O   0  0
   -4.8616    9.4864    0.0000 O   0  0
    2.5889    0.0182    0.0000 C   0  0
    1.7138   -1.2033    0.0000 C   0  0
   -1.0028   -1.5132    0.0000 N   0  0
   -2.2878    5.2708    0.0000 C   0  0
   -2.2935    3.7700    0.0000 C   0  0
   -2.3155   -0.7475    0.0000 C   0  0
   -5.9044    8.8930    0.0000 N   0  0
   -2.2702    8.2708    0.0000 C   0  0
   -0.9844    6.0132    0.0000 C   0  0
   -0.9756    7.5132    0.0000 C   0  0
   -3.3352    3.1743    0.0000 C   0  0
  2  4  1  0
  3  2  2  0
  4 16  1  0
  5  2  1  0
  6  1  1  0
  7  3  1  0
  8  3  1  0
  9  6  1  0
 10  1  2  0
 11  1  2  0
 12  7  1  0
 13  8  1  0
 14  8  2  0
 15  9  2  0
 16 15  1  0
 17  5  2  0
 18  1  1  0
 19  6  2  0
 20 15  1  0
 21 19  1  0
 22 16  1  0
 21 20  2  0
 14 17  1  0
 12 13  2  0
M  END
> <Name>
(S)-3-(1-(thieno[3,2-d]pyrimidin-4-ylamino)ethyl)benzenesulfonamide

> <Catalog No.>
Z196139376

> <OSM_ID>
OSM-S-76

> <Sample_ID>
Z196139376

> <ChEMBL>
dep2

> <3D7_IC50_nM_Avery>
>40000

> <link>
http://malaria.ourexperiment.org/osm_procedures/7157/Preparation_of_OSMS76.html

> <Series Tag>
Series 3

$$$$
2-ethoxy-N,N-dimethyl-5-(thieno[3,2-d]pyrimidin-4-ylamino)benzenesulfonamide
  SciTegic10081310362D

 25 27  0  0  0  0            999 V2000
   -3.5838    7.5239    0.0000 S   0  0
   -3.5873    6.0231    0.0000 C   0  0
   -1.0028    1.5132    0.0000 C   0  0
    0.2917    0.7475    0.0000 C   0  0
   -2.3155    0.7475    0.0000 N   0  0
   -2.2900    5.2700    0.0000 C   0  0
   -2.2827    8.2720    0.0000 N   0  0
   -0.9971    3.0138    0.0000 N   0  0
    1.7138    1.2033    0.0000 S   0  0
    0.2917   -0.7475    0.0000 C   0  0
   -4.6217    8.1260    0.0000 O   0  0
   -3.5815    8.7239    0.0000 O   0  0
   -4.8881    5.2761    0.0000 C   0  0
    2.5889    0.0182    0.0000 C   0  0
    1.7138   -1.2033    0.0000 C   0  0
   -1.0028   -1.5132    0.0000 N   0  0
   -2.2935    3.7700    0.0000 C   0  0
   -2.3155   -0.7475    0.0000 C   0  0
   -4.8917    3.7761    0.0000 C   0  0
   -3.5944    3.0231    0.0000 C   0  0
   -6.1876    6.0270    0.0000 O   0  0
   -2.2799    9.4720    0.0000 C   0  0
   -1.2447    7.6699    0.0000 C   0  0
   -7.4881    5.2778    0.0000 C   0  0
   -8.5272    5.8781    0.0000 C   0  0
  2  1  1  0
  3  8  1  0
  4  3  2  0
  5  3  1  0
  6  2  1  0
  7  1  1  0
  8 17  1  0
  9  4  1  0
 10  4  1  0
 11  1  2  0
 12  1  2  0
 13  2  2  0
 14  9  1  0
 15 10  1  0
 16 10  2  0
 17  6  2  0
 18  5  2  0
 19 13  1  0
 20 19  2  0
 21 13  1  0
 22  7  1  0
 23  7  1  0
 24 21  1  0
 25 24  1  0
 17 20  1  0
 16 18  1  0
 14 15  2  0
M  END
> <Name>
2-ethoxy-N,N-dimethyl-5-(thieno[3,2-d]pyrimidin-4-ylamino)benzenesulfonamide

> <Catalog No.>
Z196139364

> <OSM_ID>
OSM-S-77

> <Sample_ID>
Z196139364

> <ChEMBL>
dep2

> <3D7_IC50_nM_Avery>
>40000

> <link>
http://malaria.ourexperiment.org/osm_procedures/7158/Preparation_of_OSMS77.html

> <Series Tag>
Series 3

$$$$
4-(((2-(thiophen-3-yl)quinazolin-4-yl)amino)methyl)benzenesulfonamide
  SciTegic10081310362D

 27 30  0  0  0  0            999 V2000
   -2.5545   -9.7561    0.0000 S   0  0
   -2.6111    0.7486    0.0000 C   0  0
   -2.6111   -0.7486    0.0000 N   0  0
   -1.2964   -1.4973    0.0000 C   0  0
   -3.9086    1.5029    0.0000 C   0  0
   -1.2964    1.4973    0.0000 N   0  0
    0.0000   -0.7486    0.0000 C   0  0
    0.0000    0.7486    0.0000 C   0  0
   -2.5634   -8.2553    0.0000 C   0  0
   -1.2907   -2.9981    0.0000 N   0  0
   -1.5122  -10.3506    0.0000 O   0  0
   -3.5904  -10.3619    0.0000 O   0  0
   -5.5150    3.2942    0.0000 S   0  0
   -4.0476    2.9835    0.0000 C   0  0
   -5.2594    0.8807    0.0000 C   0  0
   -2.5480  -10.9560    0.0000 N   0  0
   -6.2640    1.9946    0.0000 C   0  0
   -1.2688   -7.4976    0.0000 C   0  0
   -3.8669   -7.5130    0.0000 C   0  0
   -2.5870   -3.7544    0.0000 C   0  0
   -2.5812   -5.2552    0.0000 C   0  0
   -3.8757   -6.0130    0.0000 C   0  0
   -1.2777   -5.9976    0.0000 C   0  0
    1.2964   -1.4973    0.0000 C   0  0
    1.2964    1.4973    0.0000 C   0  0
    2.5929   -0.7486    0.0000 C   0  0
    2.5929    0.7486    0.0000 C   0  0
  2  3  2  0
  3  4  1  0
  4 10  1  0
  5  2  1  0
  6  8  2  0
  7  4  2  0
  8  7  1  0
  9  1  1  0
 10 20  1  0
 11  1  2  0
 12  1  2  0
 13 14  1  0
 14  5  2  0
 15  5  1  0
 16  1  1  0
 17 15  2  0
 18  9  1  0
 19  9  2  0
 20 21  1  0
 21 22  2  0
 22 19  1  0
 23 18  2  0
 24  7  1  0
 25  8  1  0
 26 24  2  0
 27 25  2  0
 21 23  1  0
  6  2  1  0
 26 27  1  0
 13 17  1  0
M  END
> <Name>
4-(((2-(thiophen-3-yl)quinazolin-4-yl)amino)methyl)benzenesulfonamide

> <Catalog No.>
Z86248675

> <OSM_ID>
OSM-S-78

> <Sample_ID>
Z86248675

> <ChEMBL>
dep2

> <3D7_IC50_nM_Avery>
>40000

> <link>
http://malaria.ourexperiment.org/osm_procedures/7159/Preparation_of_OSMS78.html

$$$$
3-((thieno[3,2-d]pyrimidin-4-ylamino)methyl)benzenesulfonamide
  SciTegic10081310362D

 21 23  0  0  0  0            999 V2000
   -4.8690    8.2864    0.0000 S   0  0
    0.2917    0.7475    0.0000 C   0  0
   -1.0028    1.5132    0.0000 C   0  0
   -3.5736    7.5284    0.0000 C   0  0
   -2.3155    0.7475    0.0000 N   0  0
    1.7138    1.2033    0.0000 S   0  0
    0.2917   -0.7475    0.0000 C   0  0
   -0.9971    3.0138    0.0000 N   0  0
   -5.9121    7.6932    0.0000 O   0  0
   -4.8616    9.4864    0.0000 O   0  0
    2.5889    0.0182    0.0000 C   0  0
    1.7138   -1.2033    0.0000 C   0  0
   -1.0028   -1.5132    0.0000 N   0  0
   -2.3155   -0.7475    0.0000 C   0  0
   -5.9044    8.8930    0.0000 N   0  0
   -3.5824    6.0284    0.0000 C   0  0
   -2.2935    3.7700    0.0000 C   0  0
   -2.2878    5.2708    0.0000 C   0  0
   -2.2702    8.2708    0.0000 C   0  0
   -0.9756    7.5132    0.0000 C   0  0
   -0.9844    6.0132    0.0000 C   0  0
  2  3  2  0
  3  8  1  0
  4  1  1  0
  5  3  1  0
  6  2  1  0
  7  2  1  0
  8 17  1  0
  9  1  2  0
 10  1  2  0
 11  6  1  0
 12  7  1  0
 13  7  2  0
 14  5  2  0
 15  1  1  0
 16  4  2  0
 17 18  1  0
 18 16  1  0
 19  4  1  0
 20 19  2  0
 21 18  2  0
 21 20  1  0
 13 14  1  0
 11 12  2  0
M  END
> <Name>
3-((thieno[3,2-d]pyrimidin-4-ylamino)methyl)benzenesulfonamide

> <Catalog No.>
Z367550756

> <OSM_ID>
OSM-S-79

> <Sample_ID>
Z367550756

> <ChEMBL>
dep2

> <3D7_IC50_nM_Avery>
>40000

> <link>
http://malaria.ourexperiment.org/osm_procedures/7160/Preparation_of_OSMS79.html

> <Series Tag>
Series 3

$$$$
4-((4-((6-(4-methoxyphenyl)thieno[3,2-d]pyrimidin-4-yl)oxy)phenyl)sulfonyl)morpholine
  SciTegic10081310362D

 33 37  0  0  0  0            999 V2000
   -6.1861    6.0296    0.0000 S   0  0
    0.2917    0.7475    0.0000 C   0  0
    1.7138    1.2033    0.0000 S   0  0
    2.5889    0.0182    0.0000 C   0  0
   -1.0028    1.5132    0.0000 C   0  0
    1.7138   -1.2033    0.0000 C   0  0
   -6.1835    7.5305    0.0000 N   0  0
    0.2917   -0.7475    0.0000 C   0  0
   -2.3155    0.7475    0.0000 N   0  0
   -4.8881    5.2761    0.0000 C   0  0
   -7.2266    5.4318    0.0000 O   0  0
   -7.2242    6.6316    0.0000 O   0  0
   -1.0028   -1.5132    0.0000 N   0  0
   -0.9971    3.0138    0.0000 O   0  0
    4.0896    0.0290    0.0000 C   0  0
   -2.3155   -0.7475    0.0000 C   0  0
   -6.1783   10.5304    0.0000 O   0  0
   -3.5873    6.0231    0.0000 C   0  0
   -4.8917    3.7761    0.0000 C   0  0
    4.9397   -1.2009    0.0000 C   0  0
    4.7275    1.3885    0.0000 C   0  0
   -4.8831    8.2782    0.0000 C   0  0
   -7.4812    8.2827    0.0000 C   0  0
   -2.2935    3.7700    0.0000 C   0  0
    7.0761    0.2776    0.0000 C   0  0
   -2.2900    5.2700    0.0000 C   0  0
   -3.5944    3.0231    0.0000 C   0  0
    6.2225    1.5110    0.0000 C   0  0
    6.4347   -1.0783    0.0000 C   0  0
    8.5721    0.3971    0.0000 O   0  0
   -7.4786    9.7827    0.0000 C   0  0
   -4.8805    9.7782    0.0000 C   0  0
    9.2536   -0.5906    0.0000 C   0  0
  2  5  1  0
  3  2  1  0
  4  3  1  0
  5 14  1  0
  6  8  1  0
  7  1  1  0
  8  2  2  0
  9  5  2  0
 10  1  1  0
 11  1  2  0
 12  1  2  0
 13  8  1  0
 14 24  1  0
 15  4  1  0
 16  9  1  0
 17 31  1  0
 18 10  2  0
 19 10  1  0
 20 15  1  0
 21 15  2  0
 22  7  1  0
 23  7  1  0
 24 26  2  0
 25 28  2  0
 26 18  1  0
 27 19  2  0
 28 21  1  0
 29 20  2  0
 30 25  1  0
 31 23  1  0
 32 22  1  0
 33 30  1  0
 17 32  1  0
 27 24  1  0
 16 13  2  0
  6  4  2  0
 29 25  1  0
M  END
> <Name>
4-((4-((6-(4-methoxyphenyl)thieno[3,2-d]pyrimidin-4-yl)oxy)phenyl)sulfonyl)morpholine

> <Catalog No.>
Z127173570

> <OSM_ID>
OSM-S-80

> <Sample_ID>
Z127173570

> <ChEMBL>
dep2

> <3D7_IC50_nM_Avery>
80% @ 40000

> <link>
http://malaria.ourexperiment.org/osm_procedures/7161/Preparation_of_OSMS80.html

> <Series Tag>
Series 3

$$$$
N-(2-(dimethylamino)-2-oxoethyl)-2,5-dimethyl-1-phenyl-1H-pyrrole-3-carboxamide
  SciTegic10081310362D

 22 23  0  0  0  0            999 V2000
    4.9531   -1.9978    0.0000 C   0  0
    3.9511   -0.8815    0.0000 C   0  0
    2.5987   -1.5004    0.0000 N   0  0
    4.2010   -3.2956    0.0000 C   0  0
    2.7343   -2.9815    0.0000 C   0  0
    6.4437   -1.8466    0.0000 C   0  0
    9.6938   -4.1290    0.0000 C   0  0
    7.3221   -3.0635    0.0000 N   0  0
    1.2990   -0.7500    0.0000 C   0  0
   11.1870   -3.9775    0.0000 N   0  0
    8.8153   -2.9121    0.0000 C   0  0
    6.9354   -0.7520    0.0000 O   0  0
    9.2020   -5.2236    0.0000 O   0  0
    4.1955    0.2934    0.0000 C   0  0
    1.8365   -3.7777    0.0000 C   0  0
   11.8894   -4.9505    0.0000 C   0  0
   11.6787   -2.8829    0.0000 C   0  0
    1.2990    0.7500    0.0000 C   0  0
    0.0000   -1.5000    0.0000 C   0  0
   -1.2990   -0.7500    0.0000 C   0  0
    0.0000    1.5000    0.0000 C   0  0
   -1.2990    0.7500    0.0000 C   0  0
  2  1  2  0
  3  2  1  0
  4  1  1  0
  5  4  2  0
  6  1  1  0
  7 11  1  0
  8  6  1  0
  9  3  1  0
 10  7  1  0
 11  8  1  0
 12  6  2  0
 13  7  2  0
 14  2  1  0
 15  5  1  0
 16 10  1  0
 17 10  1  0
 18  9  1  0
 19  9  2  0
 20 19  1  0
 21 18  2  0
 22 20  2  0
  3  5  1  0
 22 21  1  0
M  END
> <Name>
N-(2-(dimethylamino)-2-oxoethyl)-2,5-dimethyl-1-phenyl-1H-pyrrole-3-carboxamide

> <Catalog No.>
Z102381252

> <OSM_ID>
OSM-S-81

> <Sample_ID>
Z102381252

> <ChEMBL>
dep2

> <3D7_IC50_nM_Avery>
>40000

> <link>
http://malaria.ourexperiment.org/osm_procedures/7162/Preparation_of_OSMS81.html

> <Series Tag>
Series 1

$$$$
2-(methylamino)-2-oxoethyl 1-(4-fluorophenyl)-2,5-dimethyl-1H-pyrrole-3-carboxylate
  SciTegic10081310362D

 22 23  0  0  0  0            999 V2000
    4.9531   -1.9978    0.0000 C   0  0
    3.9511   -0.8815    0.0000 C   0  0
    2.5987   -1.5004    0.0000 N   0  0
    4.2010   -3.2956    0.0000 C   0  0
    2.7343   -2.9815    0.0000 C   0  0
    6.4437   -1.8466    0.0000 C   0  0
    1.2990   -0.7500    0.0000 C   0  0
    9.6938   -4.1290    0.0000 C   0  0
    7.3221   -3.0635    0.0000 O   0  0
    6.9354   -0.7520    0.0000 O   0  0
    9.2020   -5.2236    0.0000 O   0  0
    1.2990    0.7500    0.0000 C   0  0
    0.0000   -1.5000    0.0000 C   0  0
    8.8153   -2.9121    0.0000 C   0  0
   11.1870   -3.9775    0.0000 N   0  0
    4.1955    0.2934    0.0000 C   0  0
   -1.2990    0.7500    0.0000 C   0  0
    1.8365   -3.7777    0.0000 C   0  0
   -1.2990   -0.7500    0.0000 C   0  0
    0.0000    1.5000    0.0000 C   0  0
   -2.3383    1.3500    0.0000 F   0  0
   11.8894   -4.9505    0.0000 C   0  0
  2  1  2  0
  3  2  1  0
  4  1  1  0
  5  4  2  0
  6  1  1  0
  7  3  1  0
  8 14  1  0
  9  6  1  0
 10  6  2  0
 11  8  2  0
 12  7  1  0
 13  7  2  0
 14  9  1  0
 15  8  1  0
 16  2  1  0
 17 19  2  0
 18  5  1  0
 19 13  1  0
 20 12  2  0
 21 17  1  0
 22 15  1  0
  3  5  1  0
 17 20  1  0
M  END
> <Name>
2-(methylamino)-2-oxoethyl 1-(4-fluorophenyl)-2,5-dimethyl-1H-pyrrole-3-carboxylate

> <Catalog No.>
Z18964039

> <OSM_ID>
OSM-S-82

> <Sample_ID>
Z18964039

> <ChEMBL>
dep2

> <3D7_IC50_nM_Avery>
9400

> <link>
http://malaria.ourexperiment.org/osm_procedures/7164/Preparation_of_OSMS82.html

> <Series Tag>
Series 1

$$$$
4-(2,5-dimethyl-1-phenyl-1H-pyrrole-3-carbonyl)piperazin-2-one
  SciTegic10081310362D

 22 24  0  0  0  0            999 V2000
    2.5951   -3.0039    0.0000 C   0  0
    3.8056   -3.8679    0.0000 C   0  0
    3.3372   -5.2929    0.0000 N   0  0
    2.5973   -1.5031    0.0000 C   0  0
    1.3786   -3.8595    0.0000 C   0  0
    1.8372   -5.2877    0.0000 C   0  0
    1.2990   -0.7500    0.0000 N   0  0
    0.0000    1.5000    0.0000 C   0  0
    1.2990    0.7500    0.0000 C   0  0
   -1.2990    0.7500    0.0000 N   0  0
    4.2151   -6.5101    0.0000 C   0  0
    3.6375   -0.9049    0.0000 O   0  0
    0.0000    2.7000    0.0000 O   0  0
    4.9460   -3.4943    0.0000 C   0  0
    0.0000   -1.5000    0.0000 C   0  0
    1.1285   -6.2561    0.0000 C   0  0
   -1.2990   -0.7500    0.0000 C   0  0
    5.7096   -6.4704    0.0000 C   0  0
    3.4940   -7.8274    0.0000 C   0  0
    4.2774   -9.1065    0.0000 C   0  0
    6.4930   -7.7496    0.0000 C   0  0
    5.7769   -9.0677    0.0000 C   0  0
  2  1  2  0
  3  2  1  0
  4  1  1  0
  5  1  1  0
  6  5  2  0
  7  4  1  0
  8  9  1  0
  9  7  1  0
 10  8  1  0
 11  3  1  0
 12  4  2  0
 13  8  2  0
 14  2  1  0
 15  7  1  0
 16  6  1  0
 17 15  1  0
 18 11  1  0
 19 11  2  0
 20 19  1  0
 21 18  2  0
 22 20  2  0
  3  6  1  0
 10 17  1  0
 22 21  1  0
M  END
> <Name>
4-(2,5-dimethyl-1-phenyl-1H-pyrrole-3-carbonyl)piperazin-2-one

> <Catalog No.>
Z31603451

> <OSM_ID>
OSM-S-83

> <Sample_ID>
Z31603451

> <ChEMBL>
dep2

> <3D7_IC50_nM_Avery>
>40000

> <link>
http://malaria.ourexperiment.org/osm_procedures/7165/Preparation_of_OSMS83.html

> <Series Tag>
Series 1

$$$$
1-(4-bromophenyl)-N,2,5-trimethyl-N-(2-(methylamino)-2-oxoethyl)-1H-pyrrole-3-carboxamide
  SciTegic10081310362D

 23 24  0  0  0  0            999 V2000
    4.9531   -1.9978    0.0000 C   0  0
    3.9511   -0.8815    0.0000 C   0  0
    2.5987   -1.5004    0.0000 N   0  0
    4.2010   -3.2956    0.0000 C   0  0
    6.4437   -1.8466    0.0000 C   0  0
    2.7343   -2.9815    0.0000 C   0  0
    7.3221   -3.0635    0.0000 N   0  0
    1.2990   -0.7500    0.0000 C   0  0
    9.6938   -4.1290    0.0000 C   0  0
    8.8153   -2.9121    0.0000 C   0  0
    6.9354   -0.7520    0.0000 O   0  0
    9.2020   -5.2236    0.0000 O   0  0
    1.2990    0.7500    0.0000 C   0  0
    0.0000   -1.5000    0.0000 C   0  0
   11.1870   -3.9775    0.0000 N   0  0
    4.1955    0.2934    0.0000 C   0  0
   -1.2990    0.7500    0.0000 C   0  0
    1.8365   -3.7777    0.0000 C   0  0
   -1.2990   -0.7500    0.0000 C   0  0
    0.0000    1.5000    0.0000 C   0  0
   -2.3383    1.3500    0.0000 Br  0  0
    6.8304   -4.1581    0.0000 C   0  0
   11.8894   -4.9505    0.0000 C   0  0
  2  1  2  0
  3  2  1  0
  4  1  1  0
  5  1  1  0
  6  4  2  0
  7  5  1  0
  8  3  1  0
  9 10  1  0
 10  7  1  0
 11  5  2  0
 12  9  2  0
 13  8  1  0
 14  8  2  0
 15  9  1  0
 16  2  1  0
 17 19  2  0
 18  6  1  0
 19 14  1  0
 20 13  2  0
 21 17  1  0
 22  7  1  0
 23 15  1  0
  3  6  1  0
 17 20  1  0
M  END
> <Name>
1-(4-bromophenyl)-N,2,5-trimethyl-N-(2-(methylamino)-2-oxoethyl)-1H-pyrrole-3-carboxamide

> <Catalog No.>
Z322133338

> <OSM_ID>
OSM-S-84

> <Sample_ID>
Z322133338

> <ChEMBL>
dep2

> <3D7_IC50_nM_Avery>
70% @ 40000

> <link>
http://malaria.ourexperiment.org/osm_procedures/7166/Preparation_of_OSMS84.html

> <Series Tag>
Series 1

$$$$
2-((5-(2,5-dimethyl-1-phenyl-1H-pyrrol-3-yl)-1,3,4-oxadiazol-2-yl)thio)-N-(3-methoxyphenyl)acetamide
  SciTegic10081310362D

 31 34  0  0  0  0            999 V2000
    7.4049   -9.1746    0.0000 C   0  0
    6.7499  -10.5045    0.0000 C   0  0
    6.7945   -7.8036    0.0000 C   0  0
    7.8377  -11.5373    0.0000 N   0  0
    8.8831   -9.3470    0.0000 C   0  0
    9.1561  -10.8219    0.0000 C   0  0
    5.3273   -7.4917    0.0000 O   0  0
    7.5445   -6.5046    0.0000 N   0  0
    5.1894   -6.0109    0.0000 C   0  0
    6.5408   -5.3899    0.0000 N   0  0
    2.5951   -3.0039    0.0000 C   0  0
    2.5973   -1.5031    0.0000 N   0  0
    7.6414  -13.0252    0.0000 C   0  0
    3.8912   -5.2578    0.0000 S   0  0
    1.2990   -0.7500    0.0000 C   0  0
    1.2990    0.7500    0.0000 C   0  0
    1.5548   -3.6021    0.0000 O   0  0
    3.8933   -3.7570    0.0000 C   0  0
    5.5686  -10.7156    0.0000 C   0  0
    0.0000    1.5000    0.0000 C   0  0
   10.2391  -11.3388    0.0000 C   0  0
   -0.0031    3.0008    0.0000 O   0  0
   -1.2990   -0.7500    0.0000 C   0  0
    0.0000   -1.5000    0.0000 C   0  0
    6.3066  -13.6985    0.0000 C   0  0
    8.9006  -13.8435    0.0000 C   0  0
   -1.2990    0.7500    0.0000 C   0  0
   -1.0432    3.5993    0.0000 C   0  0
    8.8169  -15.3411    0.0000 C   0  0
    6.2229  -15.1962    0.0000 C   0  0
    7.4781  -16.0175    0.0000 C   0  0
  2  1  2  0
  3  1  1  0
  4  2  1  0
  5  1  1  0
  6  5  2  0
  7  3  1  0
  8  3  2  0
  9  7  1  0
 10  8  1  0
 11 18  1  0
 12 11  1  0
 13  4  1  0
 14  9  1  0
 15 12  1  0
 16 15  1  0
 17 11  2  0
 18 14  1  0
 19  2  1  0
 20 16  2  0
 21  6  1  0
 22 20  1  0
 23 24  1  0
 24 15  2  0
 25 13  2  0
 26 13  1  0
 27 20  1  0
 28 22  1  0
 29 26  2  0
 30 25  1  0
 31 30  2  0
  4  6  1  0
 10  9  2  0
 31 29  1  0
 23 27  2  0
M  END
> <Name>
2-((5-(2,5-dimethyl-1-phenyl-1H-pyrrol-3-yl)-1,3,4-oxadiazol-2-yl)thio)-N-(3-methoxyphenyl)acetamide

> <Catalog No.>
Z56895831

> <OSM_ID>
OSM-S-85

> <Sample_ID>
Z56895831

> <ChEMBL>
dep2

> <3D7_IC50_nM_Avery>
>40000

> <link>
http://malaria.ourexperiment.org/osm_procedures/7167/Preparation_of_OSMS85.html

> <Series Tag>
Series 1

$$$$
N-(2-((2,6-difluorophenyl)amino)-2-oxoethyl)-N-ethyl-1-(4-fluorophenyl)-2,5-dimethyl-1H-pyrrole-3-carboxamide
  SciTegic10081310362D

 31 33  0  0  0  0            999 V2000
    5.1873   -7.5117    0.0000 C   0  0
    6.3978   -8.3758    0.0000 C   0  0
    5.9293   -9.8007    0.0000 N   0  0
    3.9707   -8.3673    0.0000 C   0  0
    5.1894   -6.0109    0.0000 C   0  0
    4.4293   -9.7955    0.0000 C   0  0
    1.2990   -0.7500    0.0000 C   0  0
    3.8912   -5.2578    0.0000 N   0  0
    2.5973   -1.5031    0.0000 N   0  0
    2.5951   -3.0039    0.0000 C   0  0
    6.8072  -11.0179    0.0000 C   0  0
    3.8933   -3.7570    0.0000 C   0  0
    6.2297   -5.4127    0.0000 O   0  0
    1.2990    0.7500    0.0000 C   0  0
    0.0000   -1.5000    0.0000 C   0  0
    1.5548   -3.6021    0.0000 O   0  0
    8.3017  -10.9783    0.0000 C   0  0
    6.0861  -12.3352    0.0000 C   0  0
    7.5381   -8.0021    0.0000 C   0  0
    8.3691  -13.5755    0.0000 C   0  0
    3.7206  -10.7639    0.0000 C   0  0
    0.0000   -2.7000    0.0000 F   0  0
    2.3383    1.3500    0.0000 F   0  0
    6.8696  -13.6144    0.0000 C   0  0
    9.0851  -12.2574    0.0000 C   0  0
    8.9958  -14.5988    0.0000 F   0  0
    2.5886   -6.0033    0.0000 C   0  0
   -1.2990    0.7500    0.0000 C   0  0
    0.0000    1.5000    0.0000 C   0  0
   -1.2990   -0.7500    0.0000 C   0  0
    1.5513   -5.4000    0.0000 C   0  0
  2  1  2  0
  3  2  1  0
  4  1  1  0
  5  1  1  0
  6  4  2  0
  7  9  1  0
  8  5  1  0
  9 10  1  0
 10 12  1  0
 11  3  1  0
 12  8  1  0
 13  5  2  0
 14  7  1  0
 15  7  2  0
 16 10  2  0
 17 11  1  0
 18 11  2  0
 19  2  1  0
 20 24  2  0
 21  6  1  0
 22 15  1  0
 23 14  1  0
 24 18  1  0
 25 17  2  0
 26 20  1  0
 27  8  1  0
 28 30  2  0
 29 14  2  0
 30 15  1  0
 31 27  1  0
  3  6  1  0
 20 25  1  0
 28 29  1  0
M  END
> <Name>
N-(2-((2,6-difluorophenyl)amino)-2-oxoethyl)-N-ethyl-1-(4-fluorophenyl)-2,5-dimethyl-1H-pyrrole-3-carboxamide

> <Catalog No.>
Z252425684

> <OSM_ID>
OSM-S-86

> <Sample_ID>
Z252425684

> <ChEMBL>
dep2

> <3D7_IC50_nM_Avery>
>40000

> <link>
http://malaria.ourexperiment.org/osm_procedures/7168/Preparation_of_OSMS86.html

> <Series Tag>
Series 1

$$$$
N,2,5-trimethyl-N-(2-((5-methylisoxazol-3-yl)amino)-2-oxoethyl)-1-(m-tolyl)-1H-pyrrole-3-carboxamide
  SciTegic10081310362D

 28 30  0  0  0  0            999 V2000
    4.9531   -1.9978    0.0000 C   0  0
    3.9511   -0.8815    0.0000 C   0  0
    2.5987   -1.5004    0.0000 N   0  0
    4.2010   -3.2956    0.0000 C   0  0
    6.4437   -1.8466    0.0000 C   0  0
    2.7343   -2.9815    0.0000 C   0  0
   12.0654   -5.1944    0.0000 C   0  0
   13.5527   -5.1843    0.0000 N   0  0
    1.2990   -0.7500    0.0000 C   0  0
   11.5819   -6.6009    0.0000 C   0  0
    7.3221   -3.0635    0.0000 N   0  0
   11.1870   -3.9775    0.0000 N   0  0
    9.6938   -4.1290    0.0000 C   0  0
   14.0089   -6.6132    0.0000 O   0  0
   12.7909   -7.4887    0.0000 C   0  0
    8.8153   -2.9121    0.0000 C   0  0
    6.9354   -0.7520    0.0000 O   0  0
    1.2990    0.7500    0.0000 C   0  0
    9.2020   -5.2236    0.0000 O   0  0
    4.1955    0.2934    0.0000 C   0  0
    1.8365   -3.7777    0.0000 C   0  0
    0.0000    1.5000    0.0000 C   0  0
    0.0000   -1.5000    0.0000 C   0  0
    6.8304   -4.1581    0.0000 C   0  0
   -1.2990   -0.7500    0.0000 C   0  0
   12.7848   -8.6887    0.0000 C   0  0
   -1.2990    0.7500    0.0000 C   0  0
    0.0000    2.7000    0.0000 C   0  0
  2  1  2  0
  3  2  1  0
  4  1  1  0
  5  1  1  0
  6  4  2  0
  7 12  1  0
  8  7  2  0
  9  3  1  0
 10  7  1  0
 11  5  1  0
 12 13  1  0
 13 16  1  0
 14  8  1  0
 15 10  2  0
 16 11  1  0
 17  5  2  0
 18  9  2  0
 19 13  2  0
 20  2  1  0
 21  6  1  0
 22 18  1  0
 23  9  1  0
 24 11  1  0
 25 23  2  0
 26 15  1  0
 27 22  2  0
 28 22  1  0
  3  6  1  0
 27 25  1  0
 14 15  1  0
M  END
> <Name>
N,2,5-trimethyl-N-(2-((5-methylisoxazol-3-yl)amino)-2-oxoethyl)-1-(m-tolyl)-1H-pyrrole-3-carboxamide

> <Catalog No.>
Z168527658

> <OSM_ID>
OSM-S-87

> <Sample_ID>
Z168527658

> <ChEMBL>
dep2

> <3D7_IC50_nM_Avery>
85% @ 40000

> <link>
http://malaria.ourexperiment.org/osm_procedures/7169/Preparation_of_OSMS87.html

> <Series Tag>
Series 1

$$$$
2-(4-(((1-(4-chlorophenyl)-2,5-dimethyl-1H-pyrrol-3-yl)methyl)amino)piperidin-1-yl)-N-methylacetamide
  SciTegic10081310362D

 27 29  0  0  0  0            999 V2000
   -5.4984    5.5497    0.0000 N   0  0
   -6.2484    4.2507    0.0000 C   0  0
   -3.8933    3.7570    0.0000 C   0  0
   -4.0312    5.2378    0.0000 C   0  0
   -5.2447    3.1359    0.0000 C   0  0
    1.2990   -0.7500    0.0000 N   0  0
   -6.1088    6.9207    0.0000 C   0  0
   -2.5951    3.0039    0.0000 C   0  0
    2.5951   -3.0039    0.0000 C   0  0
   -2.5973    1.5031    0.0000 N   0  0
    2.5973   -1.5031    0.0000 C   0  0
    1.5548   -3.6021    0.0000 O   0  0
   -7.5799    7.1875    0.0000 C   0  0
   -5.1336    8.0627    0.0000 C   0  0
   -1.2990   -0.7500    0.0000 C   0  0
    0.0000    1.5000    0.0000 C   0  0
    0.0000   -1.5000    0.0000 C   0  0
    1.2990    0.7500    0.0000 C   0  0
   -1.2990    0.7500    0.0000 C   0  0
    3.8933   -3.7570    0.0000 N   0  0
   -7.1146    9.7436    0.0000 C   0  0
   -7.4419    4.1252    0.0000 C   0  0
   -3.1347    6.0355    0.0000 C   0  0
   -5.6389    9.4750    0.0000 C   0  0
   -8.0851    8.5999    0.0000 C   0  0
   -7.5188   10.8735    0.0000 Cl  0  0
    3.8916   -4.9570    0.0000 C   0  0
  2  1  1  0
  3  4  2  0
  4  1  1  0
  5  2  2  0
  6 18  1  0
  7  1  1  0
  8  3  1  0
  9 11  1  0
 10  8  1  0
 11  6  1  0
 12  9  2  0
 13  7  1  0
 14  7  2  0
 15 19  1  0
 16 19  1  0
 17 15  1  0
 18 16  1  0
 19 10  1  0
 20  9  1  0
 21 24  2  0
 22  2  1  0
 23  4  1  0
 24 14  1  0
 25 13  2  0
 26 21  1  0
 27 20  1  0
  5  3  1  0
 21 25  1  0
 17  6  1  0
M  END
> <Name>
2-(4-(((1-(4-chlorophenyl)-2,5-dimethyl-1H-pyrrol-3-yl)methyl)amino)piperidin-1-yl)-N-methylacetamide

> <Catalog No.>
Z401944072

> <OSM_ID>
OSM-S-88

> <Sample_ID>
Z401944072

> <ChEMBL>
dep2

> <3D7_IC50_nM_Avery>
14700

> <link>
http://malaria.ourexperiment.org/osm_procedures/7170/Preparation_of_OSMS88.html

> <Series Tag>
Series 1

$$$$
4-amino-1-((1-(2-chlorophenyl)-2,5-dimethyl-1H-pyrrol-3-yl)methyl)-N-ethylpyrrolidine-2-carboxamide
  SciTegic10081310362D

 26 28  0  0  0  0            999 V2000
    2.5987   -1.5004    0.0000 N   0  0
    4.2010   -3.2956    0.0000 C   0  0
    6.3036   -4.8212    0.0000 N   0  0
    3.9511   -0.8815    0.0000 C   0  0
    2.7343   -2.9815    0.0000 C   0  0
    4.9531   -1.9978    0.0000 C   0  0
    7.0344   -6.1165    0.0000 C   0  0
    4.8111   -4.6641    0.0000 C   0  0
    1.2990   -0.7500    0.0000 C   0  0
    6.4200   -7.4829    0.0000 C   0  0
    8.5010   -5.8018    0.0000 C   0  0
    7.2835   -3.7023    0.0000 C   0  0
    1.2990    0.7500    0.0000 C   0  0
    8.6550   -4.3097    0.0000 C   0  0
    5.2261   -7.6035    0.0000 O   0  0
    7.2969   -8.7009    0.0000 N   0  0
    4.1955    0.2934    0.0000 C   0  0
    9.6930   -3.7078    0.0000 N   0  0
    2.3383    1.3500    0.0000 Cl  0  0
    1.8365   -3.7777    0.0000 C   0  0
    0.0000   -1.5000    0.0000 C   0  0
    0.0000    1.5000    0.0000 C   0  0
    6.6813  -10.0697    0.0000 C   0  0
    7.3824  -11.0436    0.0000 C   0  0
   -1.2990   -0.7500    0.0000 C   0  0
   -1.2990    0.7500    0.0000 C   0  0
  2  5  2  0
  3  8  1  0
  4  1  1  0
  5  1  1  0
  6  4  2  0
  7  3  1  0
  8  2  1  0
  9  1  1  0
  7 10  1  0
 11  7  1  0
 12  3  1  0
 13  9  2  0
 14 12  1  0
 15 10  2  0
 16 10  1  0
 17  4  1  0
 14 18  1  0
 19 13  1  0
 20  5  1  0
 21  9  1  0
 22 13  1  0
 23 16  1  0
 24 23  1  0
 25 21  2  0
 26 25  1  0
  6  2  1  0
 22 26  2  0
 11 14  1  0
M  END
> <Name>
4-amino-1-((1-(2-chlorophenyl)-2,5-dimethyl-1H-pyrrol-3-yl)methyl)-N-ethylpyrrolidine-2-carboxamide

> <Catalog No.>
70163819

> <OSM_ID>
OSM-S-89

> <Sample_ID>
70163819

> <ChEMBL>
dep2

> <3D7_IC50_nM_Avery>
24700

> <link>
http://malaria.ourexperiment.org/osm_procedures/7171/Preparation_of_OSMS89.html

> <Series Tag>
Series 1

$$$$
1-((1-(4-ethylphenyl)-2,5-dimethyl-1H-pyrrol-3-yl)methyl)piperidine-4-carboxyli
  SciTegic10081310362D

 25 27  0  0  0  0            999 V2000
    2.5951   -3.0039    0.0000 C   0  0
    3.3372   -5.2929    0.0000 N   0  0
    1.8372   -5.2877    0.0000 C   0  0
    3.8056   -3.8679    0.0000 C   0  0
    1.3786   -3.8595    0.0000 C   0  0
    2.5973   -1.5031    0.0000 C   0  0
    1.2990   -0.7500    0.0000 N   0  0
   -2.5973    1.5031    0.0000 C   0  0
    4.2151   -6.5101    0.0000 C   0  0
   -1.2990    0.7500    0.0000 C   0  0
   -2.5956    2.7031    0.0000 O   0  0
    5.7096   -6.4704    0.0000 C   0  0
    3.4940   -7.8274    0.0000 C   0  0
    0.0000    1.5000    0.0000 C   0  0
   -1.2990   -0.7500    0.0000 C   0  0
    1.2990    0.7500    0.0000 C   0  0
    0.0000   -1.5000    0.0000 C   0  0
   -3.6375    0.9049    0.0000 O   0  0
    1.1285   -6.2561    0.0000 C   0  0
    4.9460   -3.4943    0.0000 C   0  0
    6.4930   -7.7496    0.0000 C   0  0
    4.2774   -9.1065    0.0000 C   0  0
    5.7769   -9.0677    0.0000 C   0  0
    6.5634  -10.3459    0.0000 C   0  0
    7.7630  -10.3131    0.0000 C   0  0
  2  4  1  0
  3  5  2  0
  4  1  2  0
  5  1  1  0
  6  1  1  0
  7  6  1  0
  8 10  1  0
  9  2  1  0
 10 15  1  0
 11  8  2  0
 12  9  1  0
 13  9  2  0
 14 16  1  0
 15 17  1  0
 16  7  1  0
 17  7  1  0
 18  8  1  0
 19  3  1  0
 20  4  1  0
 21 12  2  0
 22 13  1  0
 23 22  2  0
 24 23  1  0
 25 24  1  0
  2  3  1  0
 14 10  1  0
 21 23  1  0
M  END
> <Name>
1-((1-(4-ethylphenyl)-2,5-dimethyl-1H-pyrrol-3-yl)methyl)piperidine-4-carboxyli

> <Catalog No.>
C799-0833

> <OSM_ID>
OSM-S-90

> <Sample_ID>
C799-0833

> <ChEMBL>
dep2

> <3D7_IC50_nM_Avery>
>40000

> <link>
http://malaria.ourexperiment.org/osm_procedures/7172/Preparation_of_OSMS90.html

> <Series Tag>
Series 1

$$$$
2-(dimethylamino)-2-oxoethyl 1-(4-fluorophenyl)-2,5-dimethyl-1H-pyrrole-3-carboxylate
  SciTegic10081310362D

 23 24  0  0  0  0            999 V2000
    4.9531   -1.9978    0.0000 C   0  0
    3.9511   -0.8815    0.0000 C   0  0
    2.5987   -1.5004    0.0000 N   0  0
    4.2010   -3.2956    0.0000 C   0  0
    2.7343   -2.9815    0.0000 C   0  0
    6.4437   -1.8466    0.0000 C   0  0
    9.6938   -4.1290    0.0000 C   0  0
    1.2990   -0.7500    0.0000 C   0  0
    7.3221   -3.0635    0.0000 O   0  0
   11.1870   -3.9775    0.0000 N   0  0
    8.8153   -2.9121    0.0000 C   0  0
    6.9354   -0.7520    0.0000 O   0  0
    9.2020   -5.2236    0.0000 O   0  0
    1.2990    0.7500    0.0000 C   0  0
    0.0000   -1.5000    0.0000 C   0  0
    4.1955    0.2934    0.0000 C   0  0
   -1.2990    0.7500    0.0000 C   0  0
    1.8365   -3.7777    0.0000 C   0  0
   -1.2990   -0.7500    0.0000 C   0  0
    0.0000    1.5000    0.0000 C   0  0
   -2.3383    1.3500    0.0000 F   0  0
   11.8894   -4.9505    0.0000 C   0  0
   11.6787   -2.8829    0.0000 C   0  0
  2  1  2  0
  3  2  1  0
  4  1  1  0
  5  4  2  0
  6  1  1  0
  7 11  1  0
  8  3  1  0
  9  6  1  0
 10  7  1  0
 11  9  1  0
 12  6  2  0
 13  7  2  0
 14  8  1  0
 15  8  2  0
 16  2  1  0
 17 19  2  0
 18  5  1  0
 19 15  1  0
 20 14  2  0
 21 17  1  0
 22 10  1  0
 23 10  1  0
  3  5  1  0
 17 20  1  0
M  END
> <Name>
2-(dimethylamino)-2-oxoethyl 1-(4-fluorophenyl)-2,5-dimethyl-1H-pyrrole-3-carboxylate

> <Catalog No.>
Z18963831

> <OSM_ID>
OSM-S-91

> <Sample_ID>
Z18963831

> <ChEMBL>
dep2

> <3D7_IC50_nM_Avery>
11300

> <link>
http://malaria.ourexperiment.org/osm_procedures/7173/Preparation_of_OSMS91.html

> <Series Tag>
Series 1

$$$$
2-amino-2-oxoethyl 1-(4-fluorophenyl)-1H-pyrazole-4-carboxylate
  SciTegic10081310362D

 19 20  0  0  0  0            999 V2000
    4.9531   -1.9978    0.0000 C   0  0
    3.9511   -0.8815    0.0000 C   0  0
    2.5987   -1.5004    0.0000 N   0  0
    2.7343   -2.9815    0.0000 N   0  0
    4.2010   -3.2956    0.0000 C   0  0
    1.2990   -0.7500    0.0000 C   0  0
    1.2990    0.7500    0.0000 C   0  0
    0.0000    1.5000    0.0000 C   0  0
   -1.2990    0.7500    0.0000 C   0  0
   -1.2990   -0.7500    0.0000 C   0  0
    0.0000   -1.5000    0.0000 C   0  0
   -2.3383    1.3500    0.0000 F   0  0
    6.4437   -1.8466    0.0000 C   0  0
    6.9354   -0.7520    0.0000 O   0  0
    7.3221   -3.0635    0.0000 O   0  0
    8.8153   -2.9121    0.0000 C   0  0
    9.6938   -4.1290    0.0000 C   0  0
    9.2020   -5.2236    0.0000 N   0  0
   10.8877   -4.0079    0.0000 O   0  0
  1  2  2  0
  2  3  1  0
  3  4  1  0
  4  5  2  0
  5  1  1  0
  3  6  1  0
  6  7  2  0
  7  8  1  0
  8  9  2  0
  9 10  1  0
 10 11  2  0
 11  6  1  0
  9 12  1  0
 13 14  2  0
 13 15  1  0
 15 16  1  0
 16 17  1  0
 17 18  1  0
 17 19  2  0
 13  1  1  0
M  END
> <Name>
2-amino-2-oxoethyl 1-(4-fluorophenyl)-1H-pyrazole-4-carboxylate

> <OSM_ID>
OSM-S-92

> <Sample_ID>
PMY 66-1

> <ChEMBL>
dep2

> <3D7_IC50_nM_Avery>
>40000

> <link>
http://malaria.ourexperiment.org/osm_procedures/7174/Preparation_of_OSMS92.html

> <Series Tag>
Series 1

$$$$
1-(4-fluorophenyl)-N,N,2,5-tetramethyl-1H-pyrrole-3-carboxamide
  SciTegic10081310362D

 19 20  0  0  0  0            999 V2000
    4.9531   -1.9978    0.0000 C   0  0
    3.9511   -0.8815    0.0000 C   0  0
    2.5987   -1.5004    0.0000 N   0  0
    2.7343   -2.9815    0.0000 C   0  0
    4.2010   -3.2956    0.0000 C   0  0
    1.2990   -0.7500    0.0000 C   0  0
    1.2990    0.7500    0.0000 C   0  0
    0.0000    1.5000    0.0000 C   0  0
   -1.2990    0.7500    0.0000 C   0  0
   -1.2990   -0.7500    0.0000 C   0  0
    0.0000   -1.5000    0.0000 C   0  0
   -2.3383    1.3500    0.0000 F   0  0
    6.4437   -1.8466    0.0000 C   0  0
    6.9354   -0.7520    0.0000 O   0  0
    4.1955    0.2934    0.0000 C   0  0
    1.8365   -3.7777    0.0000 C   0  0
    7.3221   -3.0635    0.0000 N   0  0
    8.5160   -2.9424    0.0000 C   0  0
    6.8304   -4.1581    0.0000 C   0  0
  1  2  2  0
  2  3  1  0
  3  4  1  0
  4  5  2  0
  5  1  1  0
  3  6  1  0
  6  7  2  0
  7  8  1  0
  8  9  2  0
  9 10  1  0
 10 11  2  0
 11  6  1  0
  9 12  1  0
 13 14  2  0
  2 15  1  0
  4 16  1  0
 13 17  1  0
 17 18  1  0
 17 19  1  0
 13  1  1  0
M  END
> <Name>
1-(4-fluorophenyl)-N,N,2,5-tetramethyl-1H-pyrrole-3-carboxamide

> <OSM_ID>
OSM-S-93

> <Sample_ID>
AEW 16-1

> <ChEMBL>
dep2

> <3D7_IC50_nM_Avery>
>40000

> <link>
http://malaria.ourexperiment.org/osm_procedures/7175/Preparation_of_OSMS93.html

> <Series Tag>
Series 1

$$$$
1-(4-fluorophenyl)-2,5-dimethyl-3-(pyrrolidin-1-ylmethyl)-1H-pyrrole
  SciTegic10081310362D

 20 22  0  0  0  0            999 V2000
    4.9531   -1.9978    0.0000 C   0  0
    3.9511   -0.8815    0.0000 C   0  0
    2.5987   -1.5004    0.0000 N   0  0
    2.7343   -2.9815    0.0000 C   0  0
    4.2010   -3.2956    0.0000 C   0  0
    1.2990   -0.7500    0.0000 C   0  0
    1.2990    0.7500    0.0000 C   0  0
    0.0000    1.5000    0.0000 C   0  0
   -1.2990    0.7500    0.0000 C   0  0
   -1.2990   -0.7500    0.0000 C   0  0
    0.0000   -1.5000    0.0000 C   0  0
   -2.3383    1.3500    0.0000 F   0  0
    6.4437   -1.8466    0.0000 C   0  0
    4.1955    0.2934    0.0000 C   0  0
    1.8365   -3.7777    0.0000 C   0  0
    7.3221   -3.0635    0.0000 N   0  0
    8.8094   -3.0534    0.0000 C   0  0
    9.2656   -4.4823    0.0000 C   0  0
    8.0476   -5.3578    0.0000 C   0  0
    6.8386   -4.4700    0.0000 C   0  0
  1  2  2  0
  2  3  1  0
  3  4  1  0
  4  5  2  0
  5  1  1  0
  3  6  1  0
  6  7  2  0
  7  8  1  0
  8  9  2  0
  9 10  1  0
 10 11  2  0
 11  6  1  0
  9 12  1  0
  2 14  1  0
  4 15  1  0
 13 16  1  0
 16 17  1  0
 17 18  1  0
 18 19  1  0
 19 20  1  0
 20 16  1  0
 13  1  1  0
M  END
> <Name>
1-(4-fluorophenyl)-2,5-dimethyl-3-(pyrrolidin-1-ylmethyl)-1H-pyrrole

> <OSM_ID>
OSM-S-94

> <Sample_ID>
AEW 12-1

> <ChEMBL>
dep2

> <3D7_IC50_nM_Avery>
96% @ 40000

> <link>
http://malaria.ourexperiment.org/osm_procedures/7177/Preparation_of_OSMS94.html

> <Series Tag>
Series 1

$$$$
1-benzyl-N-((1-(4-fluorophenyl)-2,5-dimethyl-1H-pyrrol-3-yl)methyl)piperidin-4-
  SciTegic10081310362D

 29 32  0  0  0  0            999 V2000
    4.9531   -1.9978    0.0000 C   0  0
    3.9511   -0.8815    0.0000 C   0  0
    2.5987   -1.5004    0.0000 N   0  0
    2.7343   -2.9815    0.0000 C   0  0
    4.2010   -3.2956    0.0000 C   0  0
    1.2990   -0.7500    0.0000 C   0  0
    1.2990    0.7500    0.0000 C   0  0
    0.0000    1.5000    0.0000 C   0  0
   -1.2990    0.7500    0.0000 C   0  0
   -1.2990   -0.7500    0.0000 C   0  0
    0.0000   -1.5000    0.0000 C   0  0
   -2.3383    1.3500    0.0000 F   0  0
    4.8111   -4.6641    0.0000 C   0  0
    4.1955    0.2934    0.0000 C   0  0
    1.8365   -3.7777    0.0000 C   0  0
    6.3036   -4.8212    0.0000 N   0  0
    6.9148   -6.1919    0.0000 C   0  0
    8.4063   -6.3511    0.0000 C   0  0
    9.0143   -7.7224    0.0000 C   0  0
    8.1308   -8.9345    0.0000 N   0  0
    6.6392   -8.7754    0.0000 C   0  0
    6.0312   -7.4042    0.0000 C   0  0
    8.7363  -10.3078    0.0000 C   0  0
    7.8505  -11.5194    0.0000 C   0  0
    8.4537  -12.8928    0.0000 C   0  0
    7.5659  -14.1019    0.0000 C   0  0
    6.0750  -13.9376    0.0000 C   0  0
    5.4717  -12.5643    0.0000 C   0  0
    6.3594  -11.3552    0.0000 C   0  0
  1  2  2  0
  2  3  1  0
  3  4  1  0
  4  5  2  0
  5  1  1  0
  3  6  1  0
  6  7  2  0
  7  8  1  0
  8  9  2  0
  9 10  1  0
 10 11  2  0
 11  6  1  0
  9 12  1  0
  5 13  1  0
  2 14  1  0
  4 15  1  0
 13 16  1  0
 16 17  1  0
 17 18  1  0
 18 19  1  0
 19 20  1  0
 20 21  1  0
 21 22  1  0
 22 17  1  0
 20 23  1  0
 23 24  1  0
 24 25  2  0
 25 26  1  0
 26 27  2  0
 27 28  1  0
 28 29  2  0
 29 24  1  0
M  END
> <Name>
1-benzyl-N-((1-(4-fluorophenyl)-2,5-dimethyl-1H-pyrrol-3-yl)methyl)piperidin-4-

> <OSM_ID>
OSM-S-95

> <Sample_ID>
AEW 9-2

> <ChEMBL>
dep2

> <3D7_IC50_nM_Avery>
4800

> <link>
http://malaria.ourexperiment.org/osm_procedures/7178/Preparation_of_OSMS95.html

> <Series Tag>
Series 1

$$$$
methyl 2-(1-(4-fluorophenyl)-5-methyl-1H-pyrazol-4-yl)oxazole-4-carboxylate
  SciTegic10081310362D

 22 24  0  0  0  0            999 V2000
    1.2990   -0.7500    0.0000 C   0  0
    1.2990    0.7500    0.0000 C   0  0
    0.0000    1.5000    0.0000 C   0  0
   -1.2990    0.7500    0.0000 C   0  0
   -1.2990   -0.7500    0.0000 C   0  0
    0.0000   -1.5000    0.0000 C   0  0
    0.0000    2.7000    0.0000 F   0  0
    0.0000   -3.0008    0.0000 N   0  0
    1.2149   -3.8587    0.0000 N   0  0
    0.7536   -5.2860    0.0000 C   0  0
   -0.7464   -5.2884    0.0000 C   0  0
   -1.2122   -3.8625    0.0000 C   0  0
   -1.6266   -6.5039    0.0000 C   0  0
   -2.3518   -3.4867    0.0000 C   0  0
   -3.1085   -6.3675    0.0000 O   0  0
   -3.6800   -7.7544    0.0000 C   0  0
   -2.5376   -8.7264    0.0000 C   0  0
   -1.2601   -7.9404    0.0000 N   0  0
   -2.6493  -10.2205    0.0000 C   0  0
   -1.4097  -11.0666    0.0000 O   0  0
   -3.7306  -10.7410    0.0000 O   0  0
   -1.4992  -12.2632    0.0000 C   0  0
  1  2  2  0
  2  3  1  0
  3  4  2  0
  4  5  1  0
  5  6  2  0
  6  1  1  0
  3  7  1  0
  6  8  1  0
  8  9  1  0
  9 10  2  0
 10 11  1  0
 11 12  2  0
 12  8  1  0
 11 13  1  0
 12 14  1  0
 15 16  1  0
 16 17  2  0
 17 18  1  0
 18 13  2  0
 17 19  1  0
 19 20  1  0
 19 21  2  0
 20 22  1  0
 13 15  1  0
M  END
> <Name>
methyl 2-(1-(4-fluorophenyl)-5-methyl-1H-pyrazol-4-yl)oxazole-4-carboxylate

> <OSM_ID>
OSM-S-96

> <Sample_ID>
MJT6-1

> <ChEMBL>
dep2

> <3D7_IC50_nM_Avery>
>40000

> <link>
http://malaria.ourexperiment.org/osm_procedures/7179/Preparation_of_OSMS96.html

> <Series Tag>
Series 1

$$$$
4-(1-(4-fluorophenyl)-2,5-dimethyl-1H-pyrrol-3-yl)-4-oxobutanoic acid
  SciTegic10081310362D

 21 22  0  0  0  0            999 V2000
    1.2990   -0.7500    0.0000 C   0  0
    1.2990    0.7500    0.0000 C   0  0
    0.0000    1.5000    0.0000 C   0  0
   -1.2990    0.7500    0.0000 C   0  0
   -1.2990   -0.7500    0.0000 C   0  0
    0.0000   -1.5000    0.0000 C   0  0
    0.0000    2.7000    0.0000 F   0  0
    0.0000   -3.0008    0.0000 N   0  0
   -1.2122   -3.8625    0.0000 C   0  0
   -0.7464   -5.2884    0.0000 C   0  0
    0.7536   -5.2860    0.0000 C   0  0
    1.2149   -3.8587    0.0000 C   0  0
    2.3533   -3.4793    0.0000 C   0  0
   -2.3518   -3.4867    0.0000 C   0  0
    1.6337   -6.4985    0.0000 C   0  0
    2.8271   -6.3733    0.0000 O   0  0
    1.0235   -7.8697    0.0000 C   0  0
    1.9050   -9.0843    0.0000 C   0  0
    1.2948  -10.4555    0.0000 C   0  0
    1.9997  -11.4266    0.0000 O   0  0
    0.1013  -10.5807    0.0000 O   0  0
  1  2  2  0
  2  3  1  0
  3  4  2  0
  4  5  1  0
  5  6  2  0
  6  1  1  0
  3  7  1  0
  6  8  1  0
  8  9  1  0
  9 10  2  0
 10 11  1  0
 11 12  2  0
 12  8  1  0
 12 13  1  0
  9 14  1  0
 11 15  1  0
 15 16  2  0
 15 17  1  0
 17 18  1  0
 18 19  1  0
 19 20  2  0
 19 21  1  0
M  END
> <Name>
4-(1-(4-fluorophenyl)-2,5-dimethyl-1H-pyrrol-3-yl)-4-oxobutanoic acid

> <OSM_ID>
OSM-S-97

> <Sample_ID>
MNR51-1

> <ChEMBL>
dep2

> <3D7_IC50_nM_Avery>
>40000

> <link>
http://malaria.ourexperiment.org/osm_procedures/7180/Preparation_of_OSMS97.html

> <Series Tag>
Series 1

$$$$
4-(1-(4-fluorophenyl)-2,5-dimethyl-1H-pyrrol-3-yl)-N,N-dimethyl-4-oxobutanamide
  SciTegic10081310362D

 23 24  0  0  0  0            999 V2000
    1.2990   -0.7500    0.0000 C   0  0
    1.2990    0.7500    0.0000 C   0  0
    0.0000    1.5000    0.0000 C   0  0
   -1.2990    0.7500    0.0000 C   0  0
   -1.2990   -0.7500    0.0000 C   0  0
    0.0000   -1.5000    0.0000 C   0  0
    0.0000    2.7000    0.0000 F   0  0
    0.0000   -3.0008    0.0000 N   0  0
   -1.2122   -3.8625    0.0000 C   0  0
   -0.7464   -5.2884    0.0000 C   0  0
    0.7536   -5.2860    0.0000 C   0  0
    1.2149   -3.8587    0.0000 C   0  0
    2.3533   -3.4793    0.0000 C   0  0
   -2.3518   -3.4867    0.0000 C   0  0
    1.6337   -6.4985    0.0000 C   0  0
    2.8271   -6.3733    0.0000 O   0  0
    1.0235   -7.8697    0.0000 C   0  0
    1.9050   -9.0843    0.0000 C   0  0
    1.2948  -10.4555    0.0000 C   0  0
    0.1013  -10.5807    0.0000 O   0  0
    2.1764  -11.6701    0.0000 N   0  0
    1.6884  -12.7664    0.0000 C   0  0
    3.3698  -11.5449    0.0000 C   0  0
  1  2  2  0
  2  3  1  0
  3  4  2  0
  4  5  1  0
  5  6  2  0
  6  1  1  0
  3  7  1  0
  6  8  1  0
  8  9  1  0
  9 10  2  0
 10 11  1  0
 11 12  2  0
 12  8  1  0
 12 13  1  0
  9 14  1  0
 11 15  1  0
 15 16  2  0
 15 17  1  0
 17 18  1  0
 18 19  1  0
 19 20  2  0
 19 21  1  0
 21 22  1  0
 21 23  1  0
M  END
> <Name>
4-(1-(4-fluorophenyl)-2,5-dimethyl-1H-pyrrol-3-yl)-N,N-dimethyl-4-oxobutanamide

> <OSM_ID>
OSM-S-98

> <Sample_ID>
MNR52-1

> <ChEMBL>
dep2

> <3D7_IC50_nM_Avery>
>40000

> <link>
http://malaria.ourexperiment.org/osm_procedures/7181/Preparation_of_OSMS98.html

> <Series Tag>
Series 1

$$$$
1-ethoxy-1-oxopropan-2-yl 1-(4-fluorophenyl)-2,5-dimethyl-1H-pyrrole-3-carboxylate
  SciTegic10081310362D

 24 25  0  0  0  0            999 V2000
    1.2990   -0.7500    0.0000 C   0  0
    1.2990    0.7500    0.0000 C   0  0
    0.0000    1.5000    0.0000 C   0  0
   -1.2990    0.7500    0.0000 C   0  0
   -1.2990   -0.7500    0.0000 C   0  0
    0.0000   -1.5000    0.0000 C   0  0
    0.0000    2.7000    0.0000 F   0  0
    0.0000   -3.0008    0.0000 N   0  0
   -1.2122   -3.8625    0.0000 C   0  0
   -0.7464   -5.2884    0.0000 C   0  0
    0.7536   -5.2860    0.0000 C   0  0
    1.2149   -3.8587    0.0000 C   0  0
    2.3533   -3.4793    0.0000 C   0  0
   -2.3518   -3.4867    0.0000 C   0  0
    1.6337   -6.4985    0.0000 C   0  0
    2.8271   -6.3733    0.0000 O   0  0
    1.0235   -7.8697    0.0000 O   0  0
    1.9050   -9.0843    0.0000 C   0  0
    1.2948  -10.4555    0.0000 C   0  0
    0.1013  -10.5807    0.0000 O   0  0
    2.1764  -11.6701    0.0000 O   0  0
    3.0985   -8.9591    0.0000 C   0  0
    1.5661  -13.0413    0.0000 C   0  0
    2.2710  -14.0124    0.0000 C   0  0
  1  2  2  0
  2  3  1  0
  3  4  2  0
  4  5  1  0
  5  6  2  0
  6  1  1  0
  3  7  1  0
  6  8  1  0
  8  9  1  0
  9 10  2  0
 10 11  1  0
 11 12  2  0
 12  8  1  0
 12 13  1  0
  9 14  1  0
 11 15  1  0
 15 16  2  0
 15 17  1  0
 17 18  1  0
 18 19  1  0
 19 20  2  0
 19 21  1  0
 18 22  1  0
 21 23  1  0
 23 24  1  0
M  END
> <Name>
1-ethoxy-1-oxopropan-2-yl 1-(4-fluorophenyl)-2,5-dimethyl-1H-pyrrole-3-carboxylate

> <OSM_ID>
OSM-S-99

> <Sample_ID>
MD17-1

> <ChEMBL>
dep2

> <3D7_IC50_nM_Avery>
>40000

> <link>
http://malaria.ourexperiment.org/osm_procedures/7182/Preparation_of_OSMS99.html

> <Series Tag>
Series 1

$$$$
2-((1-(4-fluorophenyl)-2,5-dimethyl-1H-pyrrole-3-carbonyl)oxy)propanoic acid
  SciTegic10081310362D

 22 23  0  0  0  0            999 V2000
    1.2990   -0.7500    0.0000 C   0  0
    1.2990    0.7500    0.0000 C   0  0
    0.0000    1.5000    0.0000 C   0  0
   -1.2990    0.7500    0.0000 C   0  0
   -1.2990   -0.7500    0.0000 C   0  0
    0.0000   -1.5000    0.0000 C   0  0
    0.0000    2.7000    0.0000 F   0  0
    0.0000   -3.0008    0.0000 N   0  0
   -1.2122   -3.8625    0.0000 C   0  0
   -0.7464   -5.2884    0.0000 C   0  0
    0.7536   -5.2860    0.0000 C   0  0
    1.2149   -3.8587    0.0000 C   0  0
    2.3533   -3.4793    0.0000 C   0  0
   -2.3518   -3.4867    0.0000 C   0  0
    1.6337   -6.4985    0.0000 C   0  0
    2.8271   -6.3733    0.0000 O   0  0
    1.0235   -7.8697    0.0000 O   0  0
    1.9050   -9.0843    0.0000 C   0  0
    1.2948  -10.4555    0.0000 C   0  0
    1.9997  -11.4266    0.0000 O   0  0
    0.1013  -10.5807    0.0000 O   0  0
    3.0985   -8.9591    0.0000 C   0  0
  1  2  2  0
  2  3  1  0
  3  4  2  0
  4  5  1  0
  5  6  2  0
  6  1  1  0
  3  7  1  0
  6  8  1  0
  8  9  1  0
  9 10  2  0
 10 11  1  0
 11 12  2  0
 12  8  1  0
 12 13  1  0
  9 14  1  0
 11 15  1  0
 15 16  2  0
 15 17  1  0
 17 18  1  0
 18 19  1  0
 19 20  2  0
 19 21  1  0
 18 22  1  0
M  END
> <Name>
2-((1-(4-fluorophenyl)-2,5-dimethyl-1H-pyrrole-3-carbonyl)oxy)propanoic acid

> <OSM_ID>
OSM-S-100

> <Sample_ID>
MD18-1

> <ChEMBL>
dep2

> <3D7_IC50_nM_Avery>
>40000

> <link>
http://malaria.ourexperiment.org/osm_procedures/7183/Preparation_of_OSMS100.html

> <Series Tag>
Series 1

$$$$
2-(1-(4-fluorophenyl)-2,5-dimethyl-1H-pyrrol-3-yl)oxazole-4-carboxylic acid
  SciTegic10081310362D

 22 24  0  0  0  0            999 V2000
    1.2990   -0.7500    0.0000 C   0  0
    1.2990    0.7500    0.0000 C   0  0
    0.0000    1.5000    0.0000 C   0  0
   -1.2990    0.7500    0.0000 C   0  0
   -1.2990   -0.7500    0.0000 C   0  0
    0.0000   -1.5000    0.0000 C   0  0
    0.0000    2.7000    0.0000 F   0  0
    0.0000   -3.0008    0.0000 N   0  0
   -1.2122   -3.8625    0.0000 C   0  0
   -0.7464   -5.2884    0.0000 C   0  0
    0.7536   -5.2860    0.0000 C   0  0
    1.2149   -3.8587    0.0000 C   0  0
    2.3533   -3.4793    0.0000 C   0  0
   -2.3518   -3.4867    0.0000 C   0  0
    3.1192   -6.3576    0.0000 O   0  0
    1.2758   -7.9363    0.0000 N   0  0
    2.5558   -8.7184    0.0000 C   0  0
    2.6784  -10.2116    0.0000 C   0  0
    3.7630  -10.7252    0.0000 O   0  0
    1.6377   -6.4987    0.0000 C   0  0
    3.6951   -7.7427    0.0000 C   0  0
    1.6916  -10.8943    0.0000 O   0  0
  1  2  2  0
  2  3  1  0
  3  4  2  0
  4  5  1  0
  5  6  2  0
  6  1  1  0
  3  7  1  0
  6  8  1  0
  8  9  1  0
  9 10  2  0
 10 11  1  0
 11 12  2  0
 12  8  1  0
 12 13  1  0
  9 14  1  0
 16 17  1  0
 17 18  1  0
 18 19  2  0
 11 20  1  0
 16 20  2  0
 20 15  1  0
 17 21  2  0
 21 15  1  0
 18 22  1  0
M  END
> <Name>
2-(1-(4-fluorophenyl)-2,5-dimethyl-1H-pyrrol-3-yl)oxazole-4-carboxylic acid

> <OSM_ID>
OSM-S-101

> <Sample_ID>
PMY59-3

> <ChEMBL>
dep2

> <3D7_IC50_nM_Avery>
>40000

> <link>
http://malaria.ourexperiment.org/osm_procedures/7184/Preparation_of_OSMS101.html

> <Series Tag>
Series 1

$$$$
4-(1-(4-fluorophenyl)-2,5-dimethyl-1H-pyrrol-3-yl)-N-methyl-4-oxobutanamide
  SciTegic10081310362D

 22 23  0  0  0  0            999 V2000
    1.2990   -0.7500    0.0000 C   0  0
    1.2990    0.7500    0.0000 C   0  0
    0.0000    1.5000    0.0000 C   0  0
   -1.2990    0.7500    0.0000 C   0  0
   -1.2990   -0.7500    0.0000 C   0  0
    0.0000   -1.5000    0.0000 C   0  0
    0.0000    2.7000    0.0000 F   0  0
    0.0000   -3.0008    0.0000 N   0  0
   -1.2122   -3.8625    0.0000 C   0  0
   -0.7464   -5.2884    0.0000 C   0  0
    0.7536   -5.2860    0.0000 C   0  0
    1.2149   -3.8587    0.0000 C   0  0
    2.3533   -3.4793    0.0000 C   0  0
   -2.3518   -3.4867    0.0000 C   0  0
    1.6337   -6.4985    0.0000 C   0  0
    2.8271   -6.3733    0.0000 O   0  0
    1.0235   -7.8697    0.0000 C   0  0
    1.9050   -9.0843    0.0000 C   0  0
    1.2948  -10.4555    0.0000 C   0  0
    0.1013  -10.5807    0.0000 O   0  0
    2.1764  -11.6701    0.0000 N   0  0
    1.6884  -12.7664    0.0000 C   0  0
  1  2  2  0
  2  3  1  0
  3  4  2  0
  4  5  1  0
  5  6  2  0
  6  1  1  0
  3  7  1  0
  6  8  1  0
  8  9  1  0
  9 10  2  0
 10 11  1  0
 11 12  2  0
 12  8  1  0
 12 13  1  0
  9 14  1  0
 11 15  1  0
 15 16  2  0
 15 17  1  0
 17 18  1  0
 18 19  1  0
 19 20  2  0
 19 21  1  0
 21 22  1  0
M  END
> <Name>
4-(1-(4-fluorophenyl)-2,5-dimethyl-1H-pyrrol-3-yl)-N-methyl-4-oxobutanamide

> <OSM_ID>
OSM-S-102

> <Sample_ID>
MNR53-1

> <ChEMBL>
dep2

> <3D7_IC50_nM_Avery>
>40000

> <link>
http://malaria.ourexperiment.org/osm_procedures/7185/Preparation_of_OSMS102.html

> <Series Tag>
Series 1

$$$$
4-(1-(4-fluorophenyl)-2,5-dimethyl-1H-pyrrol-3-yl)-4-oxobutanamide
  SciTegic10081310362D

 21 22  0  0  0  0            999 V2000
    1.2990   -0.7500    0.0000 C   0  0
    1.2990    0.7500    0.0000 C   0  0
    0.0000    1.5000    0.0000 C   0  0
   -1.2990    0.7500    0.0000 C   0  0
   -1.2990   -0.7500    0.0000 C   0  0
    0.0000   -1.5000    0.0000 C   0  0
    0.0000    2.7000    0.0000 F   0  0
    0.0000   -3.0008    0.0000 N   0  0
   -1.2122   -3.8625    0.0000 C   0  0
   -0.7464   -5.2884    0.0000 C   0  0
    0.7536   -5.2860    0.0000 C   0  0
    1.2149   -3.8587    0.0000 C   0  0
    2.3533   -3.4793    0.0000 C   0  0
   -2.3518   -3.4867    0.0000 C   0  0
    1.6337   -6.4985    0.0000 C   0  0
    2.8271   -6.3733    0.0000 O   0  0
    1.0235   -7.8697    0.0000 C   0  0
    1.9050   -9.0843    0.0000 C   0  0
    1.2948  -10.4555    0.0000 C   0  0
    1.9997  -11.4266    0.0000 O   0  0
    0.1013  -10.5807    0.0000 N   0  0
  1  2  2  0
  2  3  1  0
  3  4  2  0
  4  5  1  0
  5  6  2  0
  6  1  1  0
  3  7  1  0
  6  8  1  0
  8  9  1  0
  9 10  2  0
 10 11  1  0
 11 12  2  0
 12  8  1  0
 12 13  1  0
  9 14  1  0
 11 15  1  0
 15 16  2  0
 15 17  1  0
 17 18  1  0
 18 19  1  0
 19 20  2  0
 19 21  1  0
M  END
> <Name>
4-(1-(4-fluorophenyl)-2,5-dimethyl-1H-pyrrol-3-yl)-4-oxobutanamide

> <OSM_ID>
OSM-S-103

> <Sample_ID>
MNR54-1

> <ChEMBL>
dep2

> <3D7_IC50_nM_Avery>
61% @ 40000

> <link>
http://malaria.ourexperiment.org/osm_procedures/7186/Preparation_of_OSMS103.html

> <Series Tag>
Series 1

$$$$
2-(1-(4-fluorophenyl)-5-methyl-1H-pyrazol-4-yl)oxazole-4-carboxylic acid
  SciTegic10081310362D

 21 23  0  0  0  0            999 V2000
    1.2990   -0.7500    0.0000 C   0  0
    1.2990    0.7500    0.0000 C   0  0
    0.0000    1.5000    0.0000 C   0  0
   -1.2990    0.7500    0.0000 C   0  0
   -1.2990   -0.7500    0.0000 C   0  0
    0.0000   -1.5000    0.0000 C   0  0
    0.0000    2.7000    0.0000 F   0  0
    0.0000   -3.0008    0.0000 N   0  0
    1.2149   -3.8587    0.0000 N   0  0
    0.7536   -5.2860    0.0000 C   0  0
   -0.7464   -5.2884    0.0000 C   0  0
   -1.2122   -3.8625    0.0000 C   0  0
   -1.6266   -6.5039    0.0000 C   0  0
   -2.3518   -3.4867    0.0000 C   0  0
   -3.1085   -6.3675    0.0000 O   0  0
   -3.6800   -7.7544    0.0000 C   0  0
   -2.5376   -8.7264    0.0000 C   0  0
   -1.2601   -7.9404    0.0000 N   0  0
   -2.6493  -10.2205    0.0000 C   0  0
   -3.7306  -10.7410    0.0000 O   0  0
   -1.6581  -10.8970    0.0000 O   0  0
  1  2  2  0
  2  3  1  0
  3  4  2  0
  4  5  1  0
  5  6  2  0
  6  1  1  0
  3  7  1  0
  6  8  1  0
  8  9  1  0
  9 10  2  0
 10 11  1  0
 11 12  2  0
 12  8  1  0
 11 13  1  0
 12 14  1  0
 15 16  1  0
 16 17  2  0
 17 18  1  0
 18 13  2  0
 17 19  1  0
 13 15  1  0
 19 20  1  0
 19 21  2  0
M  END
> <Name>
2-(1-(4-fluorophenyl)-5-methyl-1H-pyrazol-4-yl)oxazole-4-carboxylic acid

> <OSM_ID>
OSM-S-104

> <Sample_ID>
MNR55-1

> <ChEMBL>
dep2

> <3D7_IC50_nM_Avery>
>40000

> <link>
http://malaria.ourexperiment.org/osm_procedures/7187/Preparation_of_OSMS104.html

> <Series Tag>
Series 1

$$$$
2-(1-(4-fluorophenyl)-5-methyl-1H-pyrazol-4-yl)oxazole-4-carboxamide
  SciTegic10081310362D

 21 23  0  0  0  0            999 V2000
    1.2990   -0.7500    0.0000 C   0  0
    1.2990    0.7500    0.0000 C   0  0
    0.0000    1.5000    0.0000 C   0  0
   -1.2990    0.7500    0.0000 C   0  0
   -1.2990   -0.7500    0.0000 C   0  0
    0.0000   -1.5000    0.0000 C   0  0
    0.0000    2.7000    0.0000 F   0  0
    0.0000   -3.0008    0.0000 N   0  0
    1.2149   -3.8587    0.0000 N   0  0
    0.7536   -5.2860    0.0000 C   0  0
   -0.7464   -5.2884    0.0000 C   0  0
   -1.2122   -3.8625    0.0000 C   0  0
   -1.6266   -6.5039    0.0000 C   0  0
   -2.3518   -3.4867    0.0000 C   0  0
   -3.1085   -6.3675    0.0000 O   0  0
   -3.6800   -7.7544    0.0000 C   0  0
   -2.5376   -8.7264    0.0000 C   0  0
   -1.2601   -7.9404    0.0000 N   0  0
   -2.6493  -10.2205    0.0000 C   0  0
   -1.6581  -10.8970    0.0000 O   0  0
   -3.7306  -10.7410    0.0000 N   0  0
  1  2  2  0
  2  3  1  0
  3  4  2  0
  4  5  1  0
  5  6  2  0
  6  1  1  0
  3  7  1  0
  6  8  1  0
  8  9  1  0
  9 10  2  0
 10 11  1  0
 11 12  2  0
 12  8  1  0
 11 13  1  0
 12 14  1  0
 15 16  1  0
 16 17  2  0
 17 18  1  0
 18 13  2  0
 17 19  1  0
 19 20  2  0
 13 15  1  0
 19 21  1  0
M  END
> <Name>
2-(1-(4-fluorophenyl)-5-methyl-1H-pyrazol-4-yl)oxazole-4-carboxamide

> <OSM_ID>
OSM-S-105

> <Sample_ID>
MNR56-1

> <ChEMBL>
dep2

> <3D7_IC50_nM_Avery>
>40000

> <link>
http://malaria.ourexperiment.org/osm_procedures/7188/Preparation_of_OSMS105.html

> <Series Tag>
Series 1

$$$$
Molecule
  SciTegic10081310362D

 20 22  0  0  0  0            999 V2000
   -2.3155    0.7475    0.0000 N   0  0
   -2.3155   -0.7475    0.0000 C   0  0
   -1.0028   -1.5132    0.0000 N   0  0
    0.2917   -0.7475    0.0000 C   0  0
    0.2917    0.7475    0.0000 C   0  0
   -1.0028    1.5132    0.0000 C   0  0
    1.7138   -1.2033    0.0000 C   0  0
    2.5889    0.0182    0.0000 C   0  0
    1.7138    1.2033    0.0000 S   0  0
    4.0896    0.0290    0.0000 C   0  0
    4.9234    1.2700    0.0000 C   0  0
    6.4199    1.1671    0.0000 C   0  0
    7.0791   -0.1803    0.0000 C   0  0
    6.2418   -1.4248    0.0000 C   0  0
    4.7453   -1.3220    0.0000 C   0  0
    6.9013   -2.7730    0.0000 S   0  0
    8.0984   -2.8560    0.0000 O   0  0
    6.2312   -3.7684    0.0000 O   0  0
    7.4281   -3.8511    0.0000 N   0  0
   -0.9991    2.7132    0.0000 N   0  0
  1  2  2  0
  2  3  1  0
  3  4  2  0
  4  5  1  0
  5  6  2  0
  6  1  1  0
  4  7  1  0
  7  8  2  0
  8  9  1  0
  9  5  1  0
  8 10  1  0
 10 11  2  0
 11 12  1  0
 12 13  2  0
 13 14  1  0
 14 15  2  0
 15 10  1  0
 16 17  2  0
 16 18  2  0
 16 19  1  0
  6 20  1  0
 14 16  1  0
M  END
> <Name>
Molecule

> <OSM_ID>
OSM-S-106

> <Sample_ID>
JRC50-2

> <3D7_IC50_nM_Avery>
36

> <link>
http://malaria.ourexperiment.org/osm_procedures/7189/Preparation_of_OSMS106.html

> <Series Tag>
Series 3

$$$$
Molecule
  SciTegic10081310362D

 23 26  0  0  0  0            999 V2000
   -2.3155    0.7475    0.0000 N   0  0
   -2.3155   -0.7475    0.0000 C   0  0
   -1.0028   -1.5132    0.0000 N   0  0
    0.2917   -0.7475    0.0000 C   0  0
    0.2917    0.7475    0.0000 C   0  0
   -1.0028    1.5132    0.0000 C   0  0
    1.7138   -1.2033    0.0000 C   0  0
    2.5889    0.0182    0.0000 C   0  0
    1.7138    1.2033    0.0000 S   0  0
   -0.9982    3.0140    0.0000 N   0  0
   -2.2894    3.7767    0.0000 C   0  0
   -2.2745    5.2767    0.0000 C   0  0
   -0.9680    6.0137    0.0000 N   0  0
    0.3235    5.2508    0.0000 C   0  0
    0.3086    3.7509    0.0000 C   0  0
   -0.9500    7.5144    0.0000 C   0  0
    0.3582    8.2500    0.0000 C   0  0
    0.3785    9.7499    0.0000 C   0  0
    1.6875   10.4824    0.0000 C   0  0
    2.9763    9.7150    0.0000 C   0  0
    2.9562    8.2151    0.0000 C   0  0
    1.6472    7.4826    0.0000 C   0  0
    4.0235   10.3010    0.0000 F   0  0
  1  2  2  0
  2  3  1  0
  3  4  2  0
  4  5  1  0
  5  6  2  0
  6  1  1  0
  4  7  1  0
  7  8  2  0
  8  9  1  0
  9  5  1  0
  6 10  1  0
 10 11  1  0
 11 12  1  0
 12 13  1  0
 13 14  1  0
 14 15  1  0
 15 10  1  0
 13 16  1  0
 16 17  1  0
 17 18  2  0
 18 19  1  0
 19 20  2  0
 20 21  1  0
 21 22  2  0
 22 17  1  0
 20 23  1  0
M  END
> <Name>
Molecule

> <OSM_ID>
OSM-S-107

> <Sample_ID>
MNR113-1

> <link>
http://malaria.ourexperiment.org/osm_procedures/7190/Preparation_of_OSMS107.html

> <3D7_IC50_nM_Avery>
92% @ 40,000

> <Series Tag>
Series 3

$$$$
Molecule
  SciTegic10081310362D

 21 23  0  0  0  0            999 V2000
    1.2990   -0.7500    0.0000 C   0  0
    1.2990    0.7500    0.0000 C   0  0
    0.0000    1.5000    0.0000 C   0  0
   -1.2990    0.7500    0.0000 C   0  0
   -1.2990   -0.7500    0.0000 C   0  0
    0.0000   -1.5000    0.0000 C   0  0
    0.0031   -3.0008    0.0000 N   0  0
    1.3039   -3.7494    0.0000 C   0  0
    1.4469   -5.2297    0.0000 N   0  0
    2.9152   -5.5365    0.0000 C   0  0
    3.6607   -4.2349    0.0000 C   0  0
    2.6532   -3.1236    0.0000 S   0  0
    5.1499   -4.0700    0.0000 C   0  0
    5.7536   -2.6959    0.0000 C   0  0
    3.4071   -6.6311    0.0000 O   0  0
    4.9858   -1.4222    0.0000 C   0  0
    5.9817   -0.3005    0.0000 C   0  0
    7.3562   -0.9010    0.0000 N   0  0
    7.2098   -2.3939    0.0000 C   0  0
    8.1024   -3.1959    0.0000 C   0  0
    5.7240    0.8715    0.0000 C   0  0
  1  2  2  0
  2  3  1  0
  3  4  2  0
  4  5  1  0
  5  6  2  0
  6  1  1  0
  6  7  1  0
  7  8  2  0
  8  9  1  0
  9 10  1  0
 10 11  1  0
 11 12  1  0
 12  8  1  0
 11 13  2  0
 13 14  1  0
 10 15  2  0
 14 16  1  0
 16 17  2  0
 17 18  1  0
 18 19  1  0
 19 14  2  0
 19 20  1  0
 17 21  1  0
M  END
> <Name>
Molecule

> <OSM_ID>
OSM-S-108

> <Sample_ID>
AEW34-1

> <3D7_IC50_nM_Avery>
1200

> <link>
http://malaria.ourexperiment.org/osm_procedures/7191/Preparation_of_OSMS108.html

$$$$
Molecule
  SciTegic10081310362D

 30 33  0  0  0  0            999 V2000
    1.2990   -0.7500    0.0000 C   0  0
    1.2990    0.7500    0.0000 C   0  0
    0.0000    1.5000    0.0000 C   0  0
   -1.2990    0.7500    0.0000 C   0  0
   -1.2990   -0.7500    0.0000 C   0  0
    0.0000   -1.5000    0.0000 C   0  0
    0.0031   -3.0008    0.0000 N   0  0
    1.3039   -3.7494    0.0000 C   0  0
    1.4469   -5.2297    0.0000 N   0  0
    2.9152   -5.5365    0.0000 C   0  0
    3.6607   -4.2349    0.0000 C   0  0
    2.6532   -3.1236    0.0000 S   0  0
    5.1499   -4.0700    0.0000 C   0  0
    5.7536   -2.6959    0.0000 C   0  0
    3.4071   -6.6311    0.0000 O   0  0
    4.9858   -1.4222    0.0000 C   0  0
    5.9817   -0.3005    0.0000 C   0  0
    7.3562   -0.9010    0.0000 N   0  0
    7.2098   -2.3939    0.0000 C   0  0
    8.1024   -3.1959    0.0000 C   0  0
    5.7240    0.8715    0.0000 C   0  0
    8.6506   -0.1416    0.0000 C   0  0
    8.7518    1.3500    0.0000 C   0  0
   10.0991    2.0095    0.0000 C   0  0
   11.3438    1.1726    0.0000 C   0  0
   11.2414   -0.3239    0.0000 C   0  0
    9.8942   -0.9835    0.0000 C   0  0
   12.6932    1.8297    0.0000 N   0  3
   13.6880    1.1587    0.0000 O   0  0
   12.7772    3.0268    0.0000 O   0  5
 28 29  2  0
 28 30  1  0
  1  2  2  0
  2  3  1  0
  3  4  2  0
  4  5  1  0
  5  6  2  0
  6  1  1  0
  6  7  1  0
  7  8  2  0
  8  9  1  0
  9 10  1  0
 10 11  1  0
 11 12  1  0
 12  8  1  0
 11 13  2  0
 13 14  1  0
 10 15  2  0
 14 16  1  0
 16 17  2  0
 17 18  1  0
 18 19  1  0
 19 14  2  0
 19 20  1  0
 17 21  1  0
 18 22  1  0
 22 23  2  0
 23 24  1  0
 24 25  2  0
 25 26  1  0
 26 27  2  0
 27 22  1  0
 25 28  1  0
M  CHG  2  28   1  30  -1
M  END
> <Name>
Molecule

> <OSM_ID>
OSM-S-109

> <Sample_ID>
MNR82-1

> <3D7_IC50_nM_Avery>
262

> <link>
http://malaria.ourexperiment.org/osm_procedures/7192/Preparation_of_OSMS109.html

> <Series Tag>
Series 1

$$$$
Molecule
  SciTegic10081310362D

 31 34  0  0  0  0            999 V2000
    1.2990   -0.7500    0.0000 C   0  0
    1.2990    0.7500    0.0000 C   0  0
    0.0000    1.5000    0.0000 C   0  0
   -1.2990    0.7500    0.0000 C   0  0
   -1.2990   -0.7500    0.0000 C   0  0
    0.0000   -1.5000    0.0000 C   0  0
    0.0031   -3.0008    0.0000 N   0  0
    1.3039   -3.7494    0.0000 C   0  0
    1.4469   -5.2297    0.0000 N   0  0
    2.9152   -5.5365    0.0000 C   0  0
    3.6607   -4.2349    0.0000 C   0  0
    2.6532   -3.1236    0.0000 S   0  0
    5.1499   -4.0700    0.0000 C   0  0
    5.7536   -2.6959    0.0000 C   0  0
    3.4071   -6.6311    0.0000 O   0  0
    4.9858   -1.4222    0.0000 C   0  0
    5.9817   -0.3005    0.0000 C   0  0
    7.3562   -0.9010    0.0000 N   0  0
    7.2098   -2.3939    0.0000 C   0  0
    8.1024   -3.1959    0.0000 C   0  0
    5.7240    0.8715    0.0000 C   0  0
    8.6506   -0.1416    0.0000 C   0  0
    8.7518    1.3500    0.0000 C   0  0
   10.0991    2.0095    0.0000 C   0  0
   11.3438    1.1726    0.0000 C   0  0
   11.2414   -0.3239    0.0000 C   0  0
    9.8942   -0.9835    0.0000 C   0  0
   12.6932    1.8297    0.0000 N   0  3
   13.6880    1.1587    0.0000 O   0  0
   12.7772    3.0268    0.0000 O   0  5
   -2.3383    1.3500    0.0000 O   0  0
 28 29  2  0
 28 30  1  0
  1  2  2  0
  2  3  1  0
  3  4  2  0
  4  5  1  0
  5  6  2  0
  6  1  1  0
  6  7  1  0
  7  8  2  0
  8  9  1  0
  9 10  1  0
 10 11  1  0
 11 12  1  0
 12  8  1  0
 11 13  2  0
 13 14  1  0
 10 15  2  0
 14 16  1  0
 16 17  2  0
 17 18  1  0
 18 19  1  0
 19 14  2  0
 19 20  1  0
 17 21  1  0
 18 22  1  0
 22 23  2  0
 23 24  1  0
 24 25  2  0
 25 26  1  0
 26 27  2  0
 27 22  1  0
  4 31  1  0
 25 28  1  0
M  CHG  2  28   1  30  -1
M  END
> <Name>
Molecule

> <OSM_ID>
OSM-S-110

> <Sample_ID>
MNR83-1

> <3D7_IC50_nM_Avery>
2300

> <link>
http://malaria.ourexperiment.org/osm_procedures/7193/Preparation_of_OSMS110.html

> <Series Tag>
Series 1

$$$$
Molecule
  SciTegic10081310362D

 29 32  0  0  0  0            999 V2000
    1.2990   -0.7500    0.0000 C   0  0
    1.2990    0.7500    0.0000 C   0  0
    0.0000    1.5000    0.0000 C   0  0
   -1.2990    0.7500    0.0000 C   0  0
   -1.2990   -0.7500    0.0000 C   0  0
    0.0000   -1.5000    0.0000 C   0  0
    0.0031   -3.0008    0.0000 N   0  0
    1.3039   -3.7494    0.0000 C   0  0
    1.4469   -5.2297    0.0000 N   0  0
    2.9152   -5.5365    0.0000 C   0  0
    3.6607   -4.2349    0.0000 C   0  0
    2.6532   -3.1236    0.0000 S   0  0
    5.1499   -4.0700    0.0000 C   0  0
    5.7536   -2.6959    0.0000 C   0  0
    3.4071   -6.6311    0.0000 O   0  0
    4.9858   -1.4222    0.0000 C   0  0
    5.9817   -0.3005    0.0000 C   0  0
    7.3562   -0.9010    0.0000 N   0  0
    7.2098   -2.3939    0.0000 C   0  0
    8.1024   -3.1959    0.0000 C   0  0
    5.7240    0.8715    0.0000 C   0  0
    8.6506   -0.1416    0.0000 C   0  0
    8.7518    1.3500    0.0000 C   0  0
   10.0991    2.0095    0.0000 C   0  0
   11.3438    1.1726    0.0000 C   0  0
   11.2414   -0.3239    0.0000 C   0  0
    9.8942   -0.9835    0.0000 C   0  0
   12.6932    1.8297    0.0000 O   0  0
   13.6880    1.1587    0.0000 C   0  0
  1  2  2  0
  2  3  1  0
  3  4  2  0
  4  5  1  0
  5  6  2  0
  6  1  1  0
  6  7  1  0
  7  8  2  0
  8  9  1  0
  9 10  1  0
 10 11  1  0
 11 12  1  0
 12  8  1  0
 11 13  2  0
 13 14  1  0
 10 15  2  0
 14 16  1  0
 16 17  2  0
 17 18  1  0
 18 19  1  0
 19 14  2  0
 19 20  1  0
 17 21  1  0
 18 22  1  0
 22 23  2  0
 23 24  1  0
 24 25  2  0
 25 26  1  0
 26 27  2  0
 27 22  1  0
 25 28  1  0
 28 29  1  0
M  END
> <Name>
Molecule

> <OSM_ID>
OSM-S-111

> <Sample_ID>
MNR84-1

> <3D7_IC50_nM_Avery>
146

> <link>
http://malaria.ourexperiment.org/osm_procedures/7194/Preparation_of_OSMS111.html

> <Series Tag>
Series 1

$$$$
Molecule
  SciTegic10081310362D

 30 33  0  0  0  0            999 V2000
    1.2990   -0.7500    0.0000 C   0  0
    1.2990    0.7500    0.0000 C   0  0
    0.0000    1.5000    0.0000 C   0  0
   -1.2990    0.7500    0.0000 C   0  0
   -1.2990   -0.7500    0.0000 C   0  0
    0.0000   -1.5000    0.0000 C   0  0
    0.0031   -3.0008    0.0000 N   0  0
    1.3039   -3.7494    0.0000 C   0  0
    1.4469   -5.2297    0.0000 N   0  0
    2.9152   -5.5365    0.0000 C   0  0
    3.6607   -4.2349    0.0000 C   0  0
    2.6532   -3.1236    0.0000 S   0  0
    5.1499   -4.0700    0.0000 C   0  0
    5.7536   -2.6959    0.0000 C   0  0
    3.4071   -6.6311    0.0000 O   0  0
    4.9858   -1.4222    0.0000 C   0  0
    5.9817   -0.3005    0.0000 C   0  0
    7.3562   -0.9010    0.0000 N   0  0
    7.2098   -2.3939    0.0000 C   0  0
    8.1024   -3.1959    0.0000 C   0  0
    5.7240    0.8715    0.0000 C   0  0
    8.6506   -0.1416    0.0000 C   0  0
    8.7518    1.3500    0.0000 C   0  0
   10.0991    2.0095    0.0000 C   0  0
   11.3438    1.1726    0.0000 C   0  0
   11.2414   -0.3239    0.0000 C   0  0
    9.8942   -0.9835    0.0000 C   0  0
   12.6932    1.8297    0.0000 O   0  0
   13.6880    1.1587    0.0000 C   0  0
   -2.3383    1.3500    0.0000 O   0  0
  1  2  2  0
  2  3  1  0
  3  4  2  0
  4  5  1  0
  5  6  2  0
  6  1  1  0
  6  7  1  0
  7  8  2  0
  8  9  1  0
  9 10  1  0
 10 11  1  0
 11 12  1  0
 12  8  1  0
 11 13  2  0
 13 14  1  0
 10 15  2  0
 14 16  1  0
 16 17  2  0
 17 18  1  0
 18 19  1  0
 19 14  2  0
 19 20  1  0
 17 21  1  0
 18 22  1  0
 22 23  2  0
 23 24  1  0
 24 25  2  0
 25 26  1  0
 26 27  2  0
 27 22  1  0
 25 28  1  0
 28 29  1  0
  4 30  1  0
M  END
> <Name>
Molecule

> <OSM_ID>
OSM-S-112

> <Sample_ID>
MNR85-1

> <3D7_IC50_nM_Avery>
1600

> <link>
http://malaria.ourexperiment.org/osm_procedures/7195/Preparation_of_OSMS112.html

> <Series Tag>
Series 1

$$$$
Molecule
  SciTegic10081310362D

 28 31  0  0  0  0            999 V2000
    1.2990   -0.7500    0.0000 C   0  0
    1.2990    0.7500    0.0000 C   0  0
    0.0000    1.5000    0.0000 C   0  0
   -1.2990    0.7500    0.0000 C   0  0
   -1.2990   -0.7500    0.0000 C   0  0
    0.0000   -1.5000    0.0000 C   0  0
    0.0031   -3.0008    0.0000 N   0  0
    1.3039   -3.7494    0.0000 C   0  0
    1.4469   -5.2297    0.0000 N   0  0
    2.9152   -5.5365    0.0000 C   0  0
    3.6607   -4.2349    0.0000 C   0  0
    2.6532   -3.1236    0.0000 S   0  0
    5.1499   -4.0700    0.0000 C   0  0
    5.7536   -2.6959    0.0000 C   0  0
    3.4071   -6.6311    0.0000 O   0  0
    4.9858   -1.4222    0.0000 C   0  0
    5.9817   -0.3005    0.0000 C   0  0
    7.3562   -0.9010    0.0000 N   0  0
    7.2098   -2.3939    0.0000 C   0  0
    8.1024   -3.1959    0.0000 C   0  0
    5.7240    0.8715    0.0000 C   0  0
    8.6506   -0.1416    0.0000 C   0  0
    8.7518    1.3500    0.0000 C   0  0
   10.0991    2.0095    0.0000 C   0  0
   11.3438    1.1726    0.0000 C   0  0
   11.2414   -0.3239    0.0000 C   0  0
    9.8942   -0.9835    0.0000 N   0  0
    0.0000    2.7000    0.0000 O   0  0
  1  2  2  0
  2  3  1  0
  3  4  2  0
  4  5  1  0
  5  6  2  0
  6  1  1  0
  6  7  1  0
  7  8  2  0
  8  9  1  0
  9 10  1  0
 10 11  1  0
 11 12  1  0
 12  8  1  0
 11 13  2  0
 13 14  1  0
 10 15  2  0
 14 16  1  0
 16 17  2  0
 17 18  1  0
 18 19  1  0
 19 14  2  0
 19 20  1  0
 17 21  1  0
 18 22  1  0
 22 23  2  0
 23 24  1  0
 24 25  2  0
 25 26  1  0
 26 27  2  0
 27 22  1  0
  3 28  1  0
M  END
> <Name>
Molecule

> <OSM_ID>
OSM-S-113

> <Sample_ID>
MNR92-1

> <3D7_IC50_nM_Avery>
>40000

> <link>
http://malaria.ourexperiment.org/osm_procedures/7196/Preparation_of_OSMS113.html

> <Series Tag>
Series 1

$$$$
Molecule
  SciTegic10081310362D

 28 31  0  0  0  0            999 V2000
    1.2990   -0.7500    0.0000 C   0  0
    1.2990    0.7500    0.0000 C   0  0
    0.0000    1.5000    0.0000 C   0  0
   -1.2990    0.7500    0.0000 C   0  0
   -1.2990   -0.7500    0.0000 C   0  0
    0.0000   -1.5000    0.0000 C   0  0
    0.0031   -3.0008    0.0000 N   0  0
    1.3039   -3.7494    0.0000 C   0  0
    1.4469   -5.2297    0.0000 N   0  0
    2.9152   -5.5365    0.0000 C   0  0
    3.6607   -4.2349    0.0000 C   0  0
    2.6532   -3.1236    0.0000 S   0  0
    5.1499   -4.0700    0.0000 C   0  0
    5.7536   -2.6959    0.0000 C   0  0
    3.4071   -6.6311    0.0000 O   0  0
    4.9858   -1.4222    0.0000 C   0  0
    5.9817   -0.3005    0.0000 C   0  0
    7.3562   -0.9010    0.0000 N   0  0
    7.2098   -2.3939    0.0000 C   0  0
    8.1024   -3.1959    0.0000 C   0  0
    5.7240    0.8715    0.0000 C   0  0
    8.6506   -0.1416    0.0000 C   0  0
    8.7518    1.3500    0.0000 C   0  0
   10.0991    2.0095    0.0000 C   0  0
   11.3438    1.1726    0.0000 C   0  0
   11.2414   -0.3239    0.0000 C   0  0
    9.8942   -0.9835    0.0000 C   0  0
   -2.3383    1.3500    0.0000 O   0  0
  1  2  2  0
  2  3  1  0
  3  4  2  0
  4  5  1  0
  5  6  2  0
  6  1  1  0
  6  7  1  0
  7  8  2  0
  8  9  1  0
  9 10  1  0
 10 11  1  0
 11 12  1  0
 12  8  1  0
 11 13  2  0
 13 14  1  0
 10 15  2  0
 14 16  1  0
 16 17  2  0
 17 18  1  0
 18 19  1  0
 19 14  2  0
 19 20  1  0
 17 21  1  0
 18 22  1  0
 22 23  2  0
 23 24  1  0
 24 25  2  0
 25 26  1  0
 26 27  2  0
 27 22  1  0
  4 28  1  0
M  END
> <Name>
Molecule

> <OSM_ID>
OSM-S-114

> <Sample_ID>
MNR94-1

> <3D7_IC50_nM_Avery>
1200

> <link>
http://malaria.ourexperiment.org/osm_procedures/7197/Preparation_of_OSMS114.html

> <Series Tag>
Series 1

$$$$
Molecule
  SciTegic10081310362D

 28 31  0  0  0  0            999 V2000
    1.2990   -0.7500    0.0000 C   0  0
    1.2990    0.7500    0.0000 C   0  0
    0.0000    1.5000    0.0000 C   0  0
   -1.2990    0.7500    0.0000 C   0  0
   -1.2990   -0.7500    0.0000 C   0  0
    0.0000   -1.5000    0.0000 C   0  0
    0.0031   -3.0008    0.0000 N   0  0
    1.3039   -3.7494    0.0000 C   0  0
    1.4469   -5.2297    0.0000 N   0  0
    2.9152   -5.5365    0.0000 C   0  0
    3.6607   -4.2349    0.0000 C   0  0
    2.6532   -3.1236    0.0000 S   0  0
    5.1499   -4.0700    0.0000 C   0  0
    5.7536   -2.6959    0.0000 C   0  0
    3.4071   -6.6311    0.0000 O   0  0
    4.9858   -1.4222    0.0000 C   0  0
    5.9817   -0.3005    0.0000 C   0  0
    7.3562   -0.9010    0.0000 N   0  0
    7.2098   -2.3939    0.0000 C   0  0
    8.1024   -3.1959    0.0000 C   0  0
    5.7240    0.8715    0.0000 C   0  0
    8.6506   -0.1416    0.0000 C   0  0
    8.7518    1.3500    0.0000 C   0  0
   10.0991    2.0095    0.0000 C   0  0
   11.3438    1.1726    0.0000 C   0  0
   11.2414   -0.3239    0.0000 C   0  0
    9.8942   -0.9835    0.0000 C   0  0
    0.0000    2.7000    0.0000 O   0  0
  1  2  2  0
  2  3  1  0
  3  4  2  0
  4  5  1  0
  5  6  2  0
  6  1  1  0
  6  7  1  0
  7  8  2  0
  8  9  1  0
  9 10  1  0
 10 11  1  0
 11 12  1  0
 12  8  1  0
 11 13  2  0
 13 14  1  0
 10 15  2  0
 14 16  1  0
 16 17  2  0
 17 18  1  0
 18 19  1  0
 19 14  2  0
 19 20  1  0
 17 21  1  0
 18 22  1  0
 22 23  2  0
 23 24  1  0
 24 25  2  0
 25 26  1  0
 26 27  2  0
 27 22  1  0
  3 28  1  0
M  END
> <Name>
Molecule

> <OSM_ID>
OSM-S-115

> <Sample_ID>
MNR95-1

> <3D7_IC50_nM_Avery>
1800

> <link>
http://malaria.ourexperiment.org/osm_procedures/7198/Preparation_of_OSMS115.html

> <Series Tag>
Series 1

$$$$
Molecule
  SciTegic10081310362D

 22 23  0  0  0  0            999 V2000
    4.1955    0.2934    0.0000 C   0  0
    3.9511   -0.8815    0.0000 C   0  0
    4.9531   -1.9978    0.0000 C   0  0
    4.2010   -3.2956    0.0000 C   0  0
    2.7343   -2.9815    0.0000 C   0  0
    1.8365   -3.7777    0.0000 C   0  0
    2.5987   -1.5004    0.0000 N   0  0
    1.2990   -0.7500    0.0000 C   0  0
    0.0000   -1.5000    0.0000 C   0  0
   -1.2990   -0.7500    0.0000 C   0  0
   -1.2990    0.7500    0.0000 C   0  0
    0.0000    1.5000    0.0000 C   0  0
    1.2990    0.7500    0.0000 C   0  0
   -2.3383    1.3500    0.0000 F   0  0
    6.4437   -1.8466    0.0000 C   0  0
    6.9354   -0.7520    0.0000 O   0  0
    7.3221   -3.0635    0.0000 O   0  0
    8.8153   -2.9121    0.0000 C   0  0
    9.6938   -4.1289    0.0000 C   0  0
   10.8877   -4.0079    0.0000 O   0  0
    9.2020   -5.2236    0.0000 N   0  0
    9.3071   -1.8175    0.0000 C   0  0
  1  2  1  0
  2  7  1  0
  2  3  2  0
  3  4  1  0
  4  5  2  0
  5  6  1  0
  5  7  1  0
  7  8  1  0
  8 13  1  0
  8  9  2  0
  9 10  1  0
 10 11  2  0
 11 12  1  0
 11 14  1  0
 12 13  2  0
 15 16  2  0
 15 17  1  0
 17 18  1  0
 18 19  1  0
 19 20  2  0
 15  3  1  0
 21 19  1  0
 18 22  1  0
M  END
> <Name>
Molecule

> <Sample_ID>
MD21-1

> <OSM_ID>
OSM-S-116

> <3D7_IC50_nM_Avery>
11000

> <link>
http://malaria.ourexperiment.org/osm_procedures/7199/Preparation_of_OSMS116.html

> <Series Tag>
Series 1

$$$$
Molecule
  SciTegic10081310362D

 15 17  0  0  0  0            999 V2000
   -2.3155    0.7475    0.0000 N   0  0
   -2.3155   -0.7475    0.0000 C   0  0
   -1.0028   -1.5132    0.0000 N   0  0
    0.2917   -0.7475    0.0000 C   0  0
    0.2917    0.7475    0.0000 C   0  0
   -1.0028    1.5132    0.0000 C   0  0
    1.7138   -1.2033    0.0000 C   0  0
    2.5889    0.0182    0.0000 C   0  0
    1.7138    1.2033    0.0000 S   0  0
   -0.9982    3.0140    0.0000 N   0  0
   -2.2894    3.7767    0.0000 C   0  0
   -2.2745    5.2767    0.0000 C   0  0
   -0.9680    6.0137    0.0000 O   0  0
    0.3235    5.2508    0.0000 C   0  0
    0.3086    3.7509    0.0000 C   0  0
  1  2  2  0
  2  3  1  0
  3  4  2  0
  4  5  1  0
  5  6  2  0
  6  1  1  0
  4  7  1  0
  7  8  2  0
  8  9  1  0
  9  5  1  0
  6 10  1  0
 10 11  1  0
 11 12  1  0
 12 13  1  0
 13 14  1  0
 14 15  1  0
 15 10  1  0
M  END
> <Name>
Molecule

> <OSM_ID>
OSM-S-117

> <Sample_ID>
MNR100-1

> <link>
http://malaria.ourexperiment.org/osm_procedures/7200/Preparation_of_OSMS117.html

> <3D7_IC50_nM_Avery>
>40,000

> <Series Tag>
Series 3

$$$$
Molecule
  SciTegic10081310362D

 15 17  0  0  0  0            999 V2000
   -2.3155    0.7475    0.0000 N   0  0
   -2.3155   -0.7475    0.0000 C   0  0
   -1.0028   -1.5132    0.0000 N   0  0
    0.2917   -0.7475    0.0000 C   0  0
    0.2917    0.7475    0.0000 C   0  0
   -1.0028    1.5132    0.0000 C   0  0
    1.7138   -1.2033    0.0000 C   0  0
    2.5889    0.0182    0.0000 C   0  0
    1.7138    1.2033    0.0000 S   0  0
   -0.9982    3.0140    0.0000 C   0  0
   -2.2894    3.7767    0.0000 C   0  0
   -2.2745    5.2767    0.0000 C   0  0
   -0.9680    6.0137    0.0000 C   0  0
    0.3235    5.2508    0.0000 C   0  0
    0.3086    3.7509    0.0000 C   0  0
  1  2  2  0
  2  3  1  0
  3  4  2  0
  4  5  1  0
  5  6  2  0
  6  1  1  0
  4  7  1  0
  7  8  2  0
  8  9  1  0
  9  5  1  0
  6 10  1  0
 10 11  2  0
 11 12  1  0
 12 13  2  0
 13 14  1  0
 14 15  2  0
 15 10  1  0
M  END
> <Name>
Molecule

> <OSM_ID>
OSM-S-118

> <Sample_ID>
AT-2-5

> <link>
http://malaria.ourexperiment.org/osm_procedures/7201/Preparation_of_OSMS118.html

> <3D7_IC50_nM_Avery>
>40,000

> <Series Tag>
Series 3

$$$$
Molecule
  SciTegic10081310362D

 17 19  0  0  0  0            999 V2000
   -2.3155    0.7475    0.0000 N   0  0
   -2.3155   -0.7475    0.0000 C   0  0
   -1.0028   -1.5132    0.0000 N   0  0
    0.2917   -0.7475    0.0000 C   0  0
    0.2917    0.7475    0.0000 C   0  0
   -1.0028    1.5132    0.0000 C   0  0
    1.7138   -1.2033    0.0000 C   0  0
    2.5889    0.0182    0.0000 C   0  0
    1.7138    1.2033    0.0000 S   0  0
   -0.9982    3.0140    0.0000 C   0  0
    3.7889    0.0269    0.0000 Br  0  0
   -2.2894    3.7767    0.0000 C   0  0
   -2.2745    5.2767    0.0000 C   0  0
   -0.9680    6.0137    0.0000 C   0  0
    0.3235    5.2508    0.0000 C   0  0
    0.3086    3.7509    0.0000 C   0  0
    2.0907   -2.3426    0.0000 Br  0  0
  1  2  2  0
  2  3  1  0
  3  4  2  0
  4  5  1  0
  5  6  2  0
  6  1  1  0
  4  7  1  0
  7  8  2  0
  8  9  1  0
  9  5  1  0
  6 10  1  0
  8 11  1  0
 10 12  2  0
 12 13  1  0
 13 14  2  0
 14 15  1  0
 15 16  2  0
 16 10  1  0
  7 17  1  0
M  END
> <Name>
Molecule

> <OSM_ID>
OSM-S-119

> <Sample_ID>
AT-4-1-f3

> <link>
http://malaria.ourexperiment.org/osm_procedures/7202/Preparation_of_OSMS119.html

> <3D7_IC50_nM_Avery>
>40,000

> <Series Tag>
Series 3

$$$$
Molecule
  SciTegic10081310362D

 16 18  0  0  0  0            999 V2000
   -2.3155    0.7475    0.0000 N   0  0
   -2.3155   -0.7475    0.0000 C   0  0
   -1.0028   -1.5132    0.0000 N   0  0
    0.2917   -0.7475    0.0000 C   0  0
    0.2917    0.7475    0.0000 C   0  0
   -1.0028    1.5132    0.0000 C   0  0
    1.7138   -1.2033    0.0000 C   0  0
    2.5889    0.0182    0.0000 C   0  0
    1.7138    1.2033    0.0000 S   0  0
   -0.9982    3.0140    0.0000 C   0  0
    3.7889    0.0269    0.0000 Br  0  0
   -2.2894    3.7767    0.0000 C   0  0
   -2.2745    5.2767    0.0000 C   0  0
   -0.9680    6.0137    0.0000 C   0  0
    0.3235    5.2508    0.0000 C   0  0
    0.3086    3.7509    0.0000 C   0  0
  1  2  2  0
  2  3  1  0
  3  4  2  0
  4  5  1  0
  5  6  2  0
  6  1  1  0
  4  7  1  0
  7  8  2  0
  8  9  1  0
  9  5  1  0
  6 10  1  0
  8 11  1  0
 10 12  2  0
 12 13  1  0
 13 14  2  0
 14 15  1  0
 15 16  2  0
 16 10  1  0
M  END
> <Name>
Molecule

> <OSM_ID>
OSM-S-120

> <Sample_ID>
AT-4-1-f4

> <link>
http://malaria.ourexperiment.org/osm_procedures/7203/Preparation_of_OSMS120.html

> <3D7_IC50_nM_Avery>
>40,000

> <Series Tag>
Series 3

$$$$
Molecule
  SciTegic10081310362D

 11 12  0  0  0  0            999 V2000
   -2.3155    0.7475    0.0000 N   0  0
   -2.3155   -0.7475    0.0000 C   0  0
   -1.0028   -1.5132    0.0000 N   0  0
    0.2917   -0.7475    0.0000 C   0  0
    0.2917    0.7475    0.0000 C   0  0
   -1.0028    1.5132    0.0000 C   0  0
    1.7138   -1.2033    0.0000 C   0  0
    2.5889    0.0182    0.0000 C   0  0
    1.7138    1.2033    0.0000 S   0  0
   -0.9991    2.7132    0.0000 Cl  0  0
    3.7889    0.0269    0.0000 Br  0  0
  1  2  2  0
  2  3  1  0
  3  4  2  0
  4  5  1  0
  5  6  2  0
  6  1  1  0
  4  7  1  0
  7  8  2  0
  8  9  1  0
  9  5  1  0
  6 10  1  0
  8 11  1  0
M  END
> <Name>
Molecule

> <OSM_ID>
OSM-S-121

> <Sample_ID>
AT-5-1

> <link>
http://malaria.ourexperiment.org/osm_procedures/7204/Preparation_of_OSMS121.html

> <3D7_IC50_nM_Avery>
95% @ 40,000

> <Series Tag>
Series 3

$$$$
Molecule
  SciTegic10081310362D

 21 24  0  0  0  0            999 V2000
   -2.3155    0.7475    0.0000 N   0  0
   -2.3155   -0.7475    0.0000 C   0  0
   -1.0028   -1.5132    0.0000 N   0  0
    0.2917   -0.7475    0.0000 C   0  0
    0.2917    0.7475    0.0000 C   0  0
   -1.0028    1.5132    0.0000 C   0  0
    1.7138   -1.2033    0.0000 C   0  0
    2.5889    0.0182    0.0000 C   0  0
    1.7138    1.2033    0.0000 S   0  0
   -0.9982    3.0140    0.0000 C   0  0
    4.0896    0.0290    0.0000 C   0  0
   -2.2894    3.7767    0.0000 C   0  0
   -2.2745    5.2767    0.0000 C   0  0
   -0.9680    6.0137    0.0000 C   0  0
    0.3235    5.2508    0.0000 C   0  0
    0.3086    3.7509    0.0000 C   0  0
    4.9234    1.2700    0.0000 C   0  0
    6.4199    1.1671    0.0000 C   0  0
    7.0791   -0.1803    0.0000 C   0  0
    6.2418   -1.4248    0.0000 C   0  0
    4.7453   -1.3220    0.0000 C   0  0
  1  2  2  0
  2  3  1  0
  3  4  2  0
  4  5  1  0
  5  6  2  0
  6  1  1  0
  4  7  1  0
  7  8  2  0
  8  9  1  0
  9  5  1  0
  6 10  1  0
  8 11  1  0
 10 12  2  0
 12 13  1  0
 13 14  2  0
 14 15  1  0
 15 16  2  0
 16 10  1  0
 11 17  2  0
 17 18  1  0
 18 19  2  0
 19 20  1  0
 20 21  2  0
 21 11  1  0
M  END
> <Name>
Molecule

> <OSM_ID>
OSM-S-122

> <Sample_ID>
AT-7-1

> <link>
http://malaria.ourexperiment.org/osm_procedures/7205/Preparation_of_OSMS122.html

> <3D7_IC50_nM_Avery>
>40,000

> <Series Tag>
Series 3

$$$$
Molecule
  SciTegic10081310362D

 16 18  0  0  0  0            999 V2000
   -2.3155    0.7475    0.0000 N   0  0
   -2.3155   -0.7475    0.0000 C   0  0
   -1.0028   -1.5132    0.0000 N   0  0
    0.2917   -0.7475    0.0000 C   0  0
    0.2917    0.7475    0.0000 C   0  0
   -1.0028    1.5132    0.0000 C   0  0
    1.7138   -1.2033    0.0000 C   0  0
    2.5889    0.0182    0.0000 C   0  0
    1.7138    1.2033    0.0000 S   0  0
   -0.9991    2.7132    0.0000 N   0  0
    4.0896    0.0290    0.0000 C   0  0
    4.9234    1.2700    0.0000 C   0  0
    6.4199    1.1671    0.0000 C   0  0
    7.0791   -0.1803    0.0000 C   0  0
    6.2418   -1.4248    0.0000 C   0  0
    4.7453   -1.3220    0.0000 C   0  0
  1  2  2  0
  2  3  1  0
  3  4  2  0
  4  5  1  0
  5  6  2  0
  6  1  1  0
  4  7  1  0
  7  8  2  0
  8  9  1  0
  9  5  1  0
  6 10  1  0
  8 11  1  0
 11 12  2  0
 12 13  1  0
 13 14  2  0
 14 15  1  0
 15 16  2  0
 16 11  1  0
M  END
> <Name>
Molecule

> <OSM_ID>
OSM-S-123

> <Sample_ID>
AT-9-1

> <link>
http://malaria.ourexperiment.org/osm_procedures/7206/Preparation_of_OSMS123.html

> <3D7_IC50_nM_Avery>
>40,000

> <Series Tag>
Series 3

$$$$
Molecule
  SciTegic10081310362D

 23 26  0  0  0  0            999 V2000
   -2.3155    0.7475    0.0000 N   0  0
   -2.3155   -0.7475    0.0000 C   0  0
   -1.0028   -1.5132    0.0000 N   0  0
    0.2917   -0.7475    0.0000 C   0  0
    0.2917    0.7475    0.0000 C   0  0
   -1.0028    1.5132    0.0000 C   0  0
    1.7138   -1.2033    0.0000 C   0  0
    2.5889    0.0182    0.0000 C   0  0
    1.7138    1.2033    0.0000 S   0  0
   -0.9982    3.0140    0.0000 N   0  0
    4.0896    0.0290    0.0000 C   0  0
   -2.2894    3.7767    0.0000 C   0  0
   -2.2745    5.2767    0.0000 C   0  0
   -0.9680    6.0137    0.0000 O   0  0
    0.3235    5.2508    0.0000 C   0  0
    0.3086    3.7509    0.0000 C   0  0
    4.9234    1.2700    0.0000 C   0  0
    6.4199    1.1671    0.0000 C   0  0
    7.0791   -0.1803    0.0000 C   0  0
    6.2418   -1.4248    0.0000 C   0  0
    4.7453   -1.3220    0.0000 C   0  0
    8.5761   -0.2862    0.0000 O   0  0
    9.1020   -1.3649    0.0000 C   0  0
  1  2  2  0
  2  3  1  0
  3  4  2  0
  4  5  1  0
  5  6  2  0
  6  1  1  0
  4  7  1  0
  7  8  2  0
  8  9  1  0
  9  5  1  0
  6 10  1  0
  8 11  1  0
 10 12  1  0
 12 13  1  0
 13 14  1  0
 14 15  1  0
 15 16  1  0
 16 10  1  0
 11 17  2  0
 17 18  1  0
 18 19  2  0
 19 20  1  0
 20 21  2  0
 21 11  1  0
 19 22  1  0
 22 23  1  0
M  END
> <Name>
Molecule

> <OSM_ID>
OSM-S-124

> <Sample_ID>
MNR114-1

> <link>
http://malaria.ourexperiment.org/osm_procedures/7207/Preparation_of_OSMS124.html

> <3D7_IC50_nM_Avery>
62% @ 40,000

> <Series Tag>
Series 3

$$$$
Molecule
  SciTegic10081310362D

 16 18  0  0  0  0            999 V2000
   -2.3155    0.7475    0.0000 N   0  0
   -2.3155   -0.7475    0.0000 C   0  0
   -1.0028   -1.5132    0.0000 N   0  0
    0.2917   -0.7475    0.0000 C   0  0
    0.2917    0.7475    0.0000 C   0  0
   -1.0028    1.5132    0.0000 C   0  0
    1.7138   -1.2033    0.0000 C   0  0
    2.5889    0.0182    0.0000 C   0  0
    1.7138    1.2033    0.0000 S   0  0
   -0.9982    3.0140    0.0000 N   0  0
    3.7889    0.0269    0.0000 Br  0  0
   -2.2894    3.7767    0.0000 C   0  0
   -2.2745    5.2767    0.0000 C   0  0
   -0.9680    6.0137    0.0000 O   0  0
    0.3235    5.2508    0.0000 C   0  0
    0.3086    3.7509    0.0000 C   0  0
  1  2  2  0
  2  3  1  0
  3  4  2  0
  4  5  1  0
  5  6  2  0
  6  1  1  0
  4  7  1  0
  7  8  2  0
  8  9  1  0
  9  5  1  0
  6 10  1  0
  8 11  1  0
 10 12  1  0
 12 13  1  0
 13 14  1  0
 14 15  1  0
 15 16  1  0
 16 10  1  0
M  END
> <Name>
Molecule

> <OSM_ID>
OSM-S-125

> <Sample_ID>
MNR101-2

> <link>
http://malaria.ourexperiment.org/osm_procedures/7208/Preparation_of_OSMS125.html

> <3D7_IC50_nM_Avery>
>40,000

> <Series Tag>
Series 3

$$$$
Molecule
  SciTegic10081310362D

 21 24  0  0  0  0            999 V2000
   -2.3155    0.7475    0.0000 N   0  0
   -2.3155   -0.7475    0.0000 C   0  0
   -1.0028   -1.5132    0.0000 N   0  0
    0.2917   -0.7475    0.0000 C   0  0
    0.2917    0.7475    0.0000 C   0  0
   -1.0028    1.5132    0.0000 C   0  0
    1.7138   -1.2033    0.0000 C   0  0
    2.5889    0.0182    0.0000 C   0  0
    1.7138    1.2033    0.0000 S   0  0
   -0.9982    3.0140    0.0000 N   0  0
    4.0896    0.0290    0.0000 C   0  0
   -2.2894    3.7767    0.0000 C   0  0
   -2.2745    5.2767    0.0000 C   0  0
   -0.9680    6.0137    0.0000 O   0  0
    0.3235    5.2508    0.0000 C   0  0
    0.3086    3.7509    0.0000 C   0  0
    4.9234    1.2700    0.0000 C   0  0
    6.4199    1.1671    0.0000 C   0  0
    7.0791   -0.1803    0.0000 C   0  0
    6.2418   -1.4248    0.0000 C   0  0
    4.7453   -1.3220    0.0000 C   0  0
  1  2  2  0
  2  3  1  0
  3  4  2  0
  4  5  1  0
  5  6  2  0
  6  1  1  0
  4  7  1  0
  7  8  2  0
  8  9  1  0
  9  5  1  0
  6 10  1  0
  8 11  1  0
 10 12  1  0
 12 13  1  0
 13 14  1  0
 14 15  1  0
 15 16  1  0
 16 10  1  0
 11 17  2  0
 17 18  1  0
 18 19  2  0
 19 20  1  0
 20 21  2  0
 21 11  1  0
M  END
> <Name>
Molecule

> <OSM_ID>
OSM-S-126

> <Sample_ID>
MNR104-1

> <link>
http://malaria.ourexperiment.org/osm_procedures/7209/Preparation_of_OSMS126.html

> <3D7_IC50_nM_Avery>
39% @ 40,000

> <Series Tag>
Series 3

$$$$
Molecule
  SciTegic10081310362D

 25 28  0  0  0  0            999 V2000
   -2.3155    0.7475    0.0000 N   0  0
   -2.3155   -0.7475    0.0000 C   0  0
   -1.0028   -1.5132    0.0000 N   0  0
    0.2917   -0.7475    0.0000 C   0  0
    0.2917    0.7475    0.0000 C   0  0
   -1.0028    1.5132    0.0000 C   0  0
    1.7138   -1.2033    0.0000 C   0  0
    2.5889    0.0182    0.0000 C   0  0
    1.7138    1.2033    0.0000 S   0  0
   -0.9982    3.0140    0.0000 N   0  0
    4.0896    0.0290    0.0000 C   0  0
   -2.2894    3.7767    0.0000 C   0  0
   -2.2745    5.2767    0.0000 C   0  0
   -0.9680    6.0137    0.0000 O   0  0
    0.3235    5.2508    0.0000 C   0  0
    0.3086    3.7509    0.0000 C   0  0
    4.9234    1.2700    0.0000 C   0  0
    6.4199    1.1671    0.0000 C   0  0
    7.0791   -0.1803    0.0000 C   0  0
    6.2418   -1.4248    0.0000 C   0  0
    4.7453   -1.3220    0.0000 C   0  0
    6.9013   -2.7730    0.0000 S   0  0
    8.0984   -2.8560    0.0000 O   0  0
    6.2312   -3.7684    0.0000 O   0  0
    7.4281   -3.8511    0.0000 N   0  0
  1  2  2  0
  2  3  1  0
  3  4  2  0
  4  5  1  0
  5  6  2  0
  6  1  1  0
  4  7  1  0
  7  8  2  0
  8  9  1  0
  9  5  1  0
  6 10  1  0
  8 11  1  0
 10 12  1  0
 12 13  1  0
 13 14  1  0
 14 15  1  0
 15 16  1  0
 16 10  1  0
 11 17  2  0
 17 18  1  0
 18 19  2  0
 19 20  1  0
 20 21  2  0
 21 11  1  0
 20 22  1  0
 22 23  2  0
 22 24  2  0
 22 25  1  0
M  END
> <Name>
Molecule

> <OSM_ID>
OSM-S-127

> <Sample_ID>
MNR106-1

> <link>
http://malaria.ourexperiment.org/osm_procedures/7210/Preparation_of_OSMS127.html

> <3D7_IC50_nM_Avery>
42% @ 40,000

> <Series Tag>
Series 3

$$$$
Molecule
  SciTegic10081310362D

 20 22  0  0  0  0            999 V2000
   -2.3155    0.7475    0.0000 N   0  0
   -2.3155   -0.7475    0.0000 C   0  0
   -1.0028   -1.5132    0.0000 N   0  0
    0.2917   -0.7475    0.0000 C   0  0
    0.2917    0.7475    0.0000 C   0  0
   -1.0028    1.5132    0.0000 C   0  0
    1.7138   -1.2033    0.0000 C   0  0
    2.5889    0.0182    0.0000 C   0  0
    1.7138    1.2033    0.0000 S   0  0
   -0.9991    2.7132    0.0000 N   0  0
    4.0896    0.0290    0.0000 C   0  0
    4.9234    1.2700    0.0000 C   0  0
    6.4199    1.1671    0.0000 C   0  0
    7.0791   -0.1803    0.0000 C   0  0
    6.2418   -1.4248    0.0000 C   0  0
    4.7453   -1.3220    0.0000 C   0  0
    8.5764   -0.2831    0.0000 C   0  0
    9.2468    0.7121    0.0000 C   0  0
    9.1034   -1.3612    0.0000 C   0  0
    9.7735   -0.3660    0.0000 C   0  0
  1  2  2  0
  2  3  1  0
  3  4  2  0
  4  5  1  0
  5  6  2  0
  6  1  1  0
  4  7  1  0
  7  8  2  0
  8  9  1  0
  9  5  1  0
  6 10  1  0
  8 11  1  0
 11 12  2  0
 12 13  1  0
 13 14  2  0
 14 15  1  0
 15 16  2  0
 16 11  1  0
 14 17  1  0
 17 18  1  0
 17 19  1  0
 17 20  1  0
M  END
> <Name>
Molecule

> <OSM_ID>
OSM-S-128

> <Sample_ID>
AT-14-1

> <link>
http://malaria.ourexperiment.org/osm_procedures/7211/Preparation_of_OSMS128.html

> <3D7_IC50_nM_Avery>
54% @ 40,000

> <Series Tag>
Series 3

$$$$
Molecule
  SciTegic10081310362D

 20 22  0  0  0  0            999 V2000
   -2.3155    0.7475    0.0000 N   0  0
   -2.3155   -0.7475    0.0000 C   0  0
   -1.0028   -1.5132    0.0000 N   0  0
    0.2917   -0.7475    0.0000 C   0  0
    0.2917    0.7475    0.0000 C   0  0
   -1.0028    1.5132    0.0000 C   0  0
    1.7138   -1.2033    0.0000 C   0  0
    2.5889    0.0182    0.0000 C   0  0
    1.7138    1.2033    0.0000 S   0  0
   -0.9991    2.7132    0.0000 N   0  0
    4.0896    0.0290    0.0000 C   0  0
    4.9234    1.2700    0.0000 C   0  0
    6.4199    1.1671    0.0000 C   0  0
    7.0791   -0.1803    0.0000 C   0  0
    6.2418   -1.4248    0.0000 C   0  0
    4.7453   -1.3220    0.0000 C   0  0
    8.5764   -0.2831    0.0000 S   0  0
    9.2468    0.7121    0.0000 O   0  0
    9.1034   -1.3612    0.0000 O   0  0
    9.7735   -0.3660    0.0000 N   0  0
  1  2  2  0
  2  3  1  0
  3  4  2  0
  4  5  1  0
  5  6  2  0
  6  1  1  0
  4  7  1  0
  7  8  2  0
  8  9  1  0
  9  5  1  0
  6 10  1  0
  8 11  1  0
 11 12  2  0
 12 13  1  0
 13 14  2  0
 14 15  1  0
 15 16  2  0
 16 11  1  0
 14 17  1  0
 17 18  2  0
 17 19  2  0
 17 20  1  0
M  END
> <Name>
Molecule

> <OSM_ID>
OSM-S-129

> <Sample_ID>
AT-10-4

> <link>
http://malaria.ourexperiment.org/osm_procedures/7212/Preparation_of_OSMS129.html

> <3D7_IC50_nM_Avery>
>40,000

> <Series Tag>
Series 3

$$$$
Molecule
  SciTegic10081310362D

 21 23  0  0  0  0            999 V2000
   -2.3155    0.7475    0.0000 N   0  0
   -2.3155   -0.7475    0.0000 C   0  0
   -1.0028   -1.5132    0.0000 N   0  0
    0.2917   -0.7475    0.0000 C   0  0
    0.2917    0.7475    0.0000 C   0  0
   -1.0028    1.5132    0.0000 C   0  0
    1.7138   -1.2033    0.0000 C   0  0
    2.5889    0.0182    0.0000 C   0  0
    1.7138    1.2033    0.0000 S   0  0
   -0.9991    2.7132    0.0000 N   0  0
    4.0896    0.0290    0.0000 C   0  0
    4.9234    1.2700    0.0000 C   0  0
    6.4199    1.1671    0.0000 C   0  0
    7.0791   -0.1803    0.0000 C   0  0
    6.2418   -1.4248    0.0000 C   0  0
    4.7453   -1.3220    0.0000 C   0  0
    8.5761   -0.2862    0.0000 C   0  0
    9.2338   -1.6353    0.0000 N   0  0
    9.2477    0.7083    0.0000 O   0  0
   10.4308   -1.7200    0.0000 C   0  0
    8.5622   -2.6298    0.0000 C   0  0
  1  2  2  0
  2  3  1  0
  3  4  2  0
  4  5  1  0
  5  6  2  0
  6  1  1  0
  4  7  1  0
  7  8  2  0
  8  9  1  0
  9  5  1  0
  6 10  1  0
  8 11  1  0
 11 12  2  0
 12 13  1  0
 13 14  2  0
 14 15  1  0
 15 16  2  0
 16 11  1  0
 14 17  1  0
 17 18  1  0
 17 19  2  0
 18 20  1  0
 18 21  1  0
M  END
> <Name>
Molecule

> <OSM_ID>
OSM-S-130

> <Sample_ID>
AT-17-1

> <link>
http://malaria.ourexperiment.org/osm_procedures/7213/Preparation_of_OSMS130.html

> <3D7_IC50_nM_Avery>
>40,000

> <Series Tag>
Series 3

$$$$
Molecule
  SciTegic10081310362D

 18 20  0  0  0  0            999 V2000
   -2.3155    0.7475    0.0000 N   0  0
   -2.3155   -0.7475    0.0000 C   0  0
   -1.0028   -1.5132    0.0000 N   0  0
    0.2917   -0.7475    0.0000 C   0  0
    0.2917    0.7475    0.0000 C   0  0
   -1.0028    1.5132    0.0000 C   0  0
    1.7138   -1.2033    0.0000 C   0  0
    2.5889    0.0182    0.0000 C   0  0
    1.7138    1.2033    0.0000 S   0  0
   -0.9991    2.7132    0.0000 N   0  0
    4.0896    0.0290    0.0000 C   0  0
    4.9234    1.2700    0.0000 C   0  0
    6.4199    1.1671    0.0000 C   0  0
    7.0791   -0.1803    0.0000 C   0  0
    6.2418   -1.4248    0.0000 C   0  0
    4.7453   -1.3220    0.0000 C   0  0
    8.5761   -0.2862    0.0000 O   0  0
    9.1020   -1.3649    0.0000 C   0  0
  1  2  2  0
  2  3  1  0
  3  4  2  0
  4  5  1  0
  5  6  2  0
  6  1  1  0
  4  7  1  0
  7  8  2  0
  8  9  1  0
  9  5  1  0
  6 10  1  0
  8 11  1  0
 11 12  2  0
 12 13  1  0
 13 14  2  0
 14 15  1  0
 15 16  2  0
 16 11  1  0
 14 17  1  0
 17 18  1  0
M  END
> <Name>
Molecule

> <OSM_ID>
OSM-S-131

> <Sample_ID>
AT-13-1

> <link>
http://malaria.ourexperiment.org/osm_procedures/7214/Preparation_of_OSMS131.html

> <3D7_IC50_nM_Avery>
>40,000

> <Series Tag>
Series 3

$$$$
Molecule
  SciTegic10081310362D

 24 27  0  0  0  0            999 V2000
   -2.3155    0.7475    0.0000 N   0  0
   -2.3155   -0.7475    0.0000 C   0  0
   -1.0028   -1.5132    0.0000 N   0  0
    0.2917   -0.7475    0.0000 C   0  0
    0.2917    0.7475    0.0000 C   0  0
   -1.0028    1.5132    0.0000 C   0  0
    1.7138   -1.2033    0.0000 C   0  0
    2.5889    0.0182    0.0000 C   0  0
    1.7138    1.2033    0.0000 S   0  0
   -0.9991    2.7132    0.0000 N   0  0
    4.0896    0.0290    0.0000 C   0  0
    4.9234    1.2700    0.0000 C   0  0
    6.4199    1.1671    0.0000 C   0  0
    7.0791   -0.1803    0.0000 C   0  0
    6.2418   -1.4248    0.0000 C   0  0
    4.7453   -1.3220    0.0000 C   0  0
    8.5761   -0.2862    0.0000 C   0  0
    9.2477    0.7083    0.0000 O   0  0
    9.2338   -1.6353    0.0000 N   0  0
   10.7299   -1.7434    0.0000 C   0  0
   11.3844   -3.0931    0.0000 C   0  0
   10.5428   -4.3347    0.0000 O   0  0
    9.0467   -4.2267    0.0000 C   0  0
    8.3922   -2.8771    0.0000 C   0  0
  1  2  2  0
  2  3  1  0
  3  4  2  0
  4  5  1  0
  5  6  2  0
  6  1  1  0
  4  7  1  0
  7  8  2  0
  8  9  1  0
  9  5  1  0
  6 10  1  0
  8 11  1  0
 11 12  2  0
 12 13  1  0
 13 14  2  0
 14 15  1  0
 15 16  2  0
 16 11  1  0
 14 17  1  0
 17 18  2  0
 17 19  1  0
 19 20  1  0
 20 21  1  0
 21 22  1  0
 22 23  1  0
 23 24  1  0
 24 19  1  0
M  END
> <Name>
Molecule

> <OSM_ID>
OSM-S-132

> <Sample_ID>
AT-19-1

> <link>
http://malaria.ourexperiment.org/osm_procedures/7377/Preparation_of_OSMS132.html

> <3D7_IC50_nM_Avery>
>40,000

> <Series Tag>
Series 3

$$$$
Molecule
  SciTegic10081310362D

 21 23  0  0  0  0            999 V2000
   -2.3155    0.7475    0.0000 N   0  0
   -2.3155   -0.7475    0.0000 C   0  0
   -1.0028   -1.5132    0.0000 N   0  0
    0.2917   -0.7475    0.0000 C   0  0
    0.2917    0.7475    0.0000 C   0  0
   -1.0028    1.5132    0.0000 C   0  0
    1.7138   -1.2033    0.0000 C   0  0
    2.5889    0.0182    0.0000 C   0  0
    1.7138    1.2033    0.0000 S   0  0
   -0.9991    2.7132    0.0000 N   0  0
    4.0896    0.0290    0.0000 C   0  0
    4.9234    1.2700    0.0000 C   0  0
    6.4199    1.1671    0.0000 C   0  0
    7.0791   -0.1803    0.0000 C   0  0
    6.2418   -1.4248    0.0000 C   0  0
    4.7453   -1.3220    0.0000 C   0  0
    6.8985   -2.7743    0.0000 C   0  0
    8.0956   -2.8587    0.0000 O   0  0
    6.0590   -4.0184    0.0000 N   0  0
    6.5842   -5.0974    0.0000 C   0  0
    4.8620   -3.9340    0.0000 C   0  0
  1  2  2  0
  2  3  1  0
  3  4  2  0
  4  5  1  0
  5  6  2  0
  6  1  1  0
  4  7  1  0
  7  8  2  0
  8  9  1  0
  9  5  1  0
  6 10  1  0
  8 11  1  0
 11 12  2  0
 12 13  1  0
 13 14  2  0
 14 15  1  0
 15 16  2  0
 16 11  1  0
 15 17  1  0
 17 18  2  0
 17 19  1  0
 19 20  1  0
 19 21  1  0
M  END
> <Name>
Molecule

> <OSM_ID>
OSM-S-133

> <Sample_ID>
AT-22-1

> <link>
http://malaria.ourexperiment.org/osm_procedures/7378/Preparation_of_OSMS133.html

> <3D7_IC50_nM_Avery>
73% @ 40,000

> <Series Tag>
Series 3

$$$$
Molecule
  SciTegic10081310362D

 25 28  0  0  0  0            999 V2000
   -2.3155    0.7475    0.0000 N   0  0
   -2.3155   -0.7475    0.0000 C   0  0
   -1.0028   -1.5132    0.0000 N   0  0
    0.2917   -0.7475    0.0000 C   0  0
    0.2917    0.7475    0.0000 C   0  0
   -1.0028    1.5132    0.0000 C   0  0
    1.7138   -1.2033    0.0000 C   0  0
    2.5889    0.0182    0.0000 C   0  0
    1.7138    1.2033    0.0000 S   0  0
   -0.9991    2.7132    0.0000 N   0  0
    4.0896    0.0290    0.0000 C   0  0
    4.9234    1.2700    0.0000 C   0  0
    6.4199    1.1671    0.0000 C   0  0
    7.0791   -0.1803    0.0000 C   0  0
    6.2418   -1.4248    0.0000 C   0  0
    4.7453   -1.3220    0.0000 C   0  0
    8.5761   -0.2862    0.0000 C   0  0
    9.2477    0.7083    0.0000 O   0  0
    9.2338   -1.6353    0.0000 N   0  0
   10.7299   -1.7434    0.0000 C   0  0
   11.3844   -3.0931    0.0000 C   0  0
   10.5428   -4.3347    0.0000 N   0  0
    9.0467   -4.2267    0.0000 C   0  0
    8.3922   -2.8771    0.0000 C   0  0
   11.0664   -5.4145    0.0000 C   0  0
  1  2  2  0
  2  3  1  0
  3  4  2  0
  4  5  1  0
  5  6  2  0
  6  1  1  0
  4  7  1  0
  7  8  2  0
  8  9  1  0
  9  5  1  0
  6 10  1  0
  8 11  1  0
 11 12  2  0
 12 13  1  0
 13 14  2  0
 14 15  1  0
 15 16  2  0
 16 11  1  0
 14 17  1  0
 17 18  2  0
 17 19  1  0
 19 20  1  0
 20 21  1  0
 21 22  1  0
 22 23  1  0
 23 24  1  0
 24 19  1  0
 22 25  1  0
M  END
> <Name>
Molecule

> <OSM_ID>
OSM-S-134

> <Sample_ID>
AT-21-1

> <link>
http://malaria.ourexperiment.org/osm_procedures/7379/Preparation_of_OSMS134.html

> <3D7_IC50_nM_Avery>
>40,000

> <Series Tag>
Series 3

$$$$
Molecule
  SciTegic10081310362D

 19 21  0  0  0  0            999 V2000
   -2.3155    0.7475    0.0000 N   0  0
   -2.3155   -0.7475    0.0000 C   0  0
   -1.0028   -1.5132    0.0000 N   0  0
    0.2917   -0.7475    0.0000 C   0  0
    0.2917    0.7475    0.0000 C   0  0
   -1.0028    1.5132    0.0000 C   0  0
    1.7138   -1.2033    0.0000 C   0  0
    2.5889    0.0182    0.0000 C   0  0
    1.7138    1.2033    0.0000 S   0  0
   -0.9991    2.7132    0.0000 N   0  0
    4.0896    0.0290    0.0000 C   0  0
    4.9234    1.2700    0.0000 C   0  0
    6.4199    1.1671    0.0000 C   0  0
    7.0791   -0.1803    0.0000 C   0  0
    6.2418   -1.4248    0.0000 C   0  0
    4.7453   -1.3220    0.0000 C   0  0
    6.8985   -2.7743    0.0000 C   0  0
    6.2273   -3.7690    0.0000 O   0  0
    8.0956   -2.8587    0.0000 N   0  0
  1  2  2  0
  2  3  1  0
  3  4  2  0
  4  5  1  0
  5  6  2  0
  6  1  1  0
  4  7  1  0
  7  8  2  0
  8  9  1  0
  9  5  1  0
  6 10  1  0
  8 11  1  0
 11 12  2  0
 12 13  1  0
 13 14  2  0
 14 15  1  0
 15 16  2  0
 16 11  1  0
 15 17  1  0
 17 18  2  0
 17 19  1  0
M  END
> <Name>
Molecule

> <OSM_ID>
OSM-S-135

> <Sample_ID>
AT-24-1

> <link>
http://malaria.ourexperiment.org/osm_procedures/7380/Preparation_of_OSMS135.html

> <3D7_IC50_nM_Avery>
>40,000

> <Series Tag>
Series 3

$$$$
Molecule
  SciTegic10081310362D

 24 27  0  0  0  0            999 V2000
   -2.3155    0.7475    0.0000 N   0  0
   -2.3155   -0.7475    0.0000 C   0  0
   -1.0028   -1.5132    0.0000 N   0  0
    0.2917   -0.7475    0.0000 C   0  0
    0.2917    0.7475    0.0000 C   0  0
   -1.0028    1.5132    0.0000 C   0  0
    1.7138   -1.2033    0.0000 C   0  0
    2.5889    0.0182    0.0000 C   0  0
    1.7138    1.2033    0.0000 S   0  0
   -0.9982    3.0140    0.0000 N   0  0
   -2.2894    3.7767    0.0000 C   0  0
   -2.2745    5.2767    0.0000 C   0  0
   -0.9680    6.0137    0.0000 N   0  0
    0.3235    5.2508    0.0000 C   0  0
    0.3086    3.7509    0.0000 C   0  0
   -0.9500    7.5144    0.0000 C   0  0
    0.3582    8.2500    0.0000 C   0  0
    0.3785    9.7499    0.0000 C   0  0
    1.6875   10.4824    0.0000 C   0  0
    2.9763    9.7150    0.0000 C   0  0
    2.9562    8.2151    0.0000 C   0  0
    1.6472    7.4826    0.0000 C   0  0
    4.0235   10.3010    0.0000 F   0  0
    3.7889    0.0269    0.0000 Br  0  0
  1  2  2  0
  2  3  1  0
  3  4  2  0
  4  5  1  0
  5  6  2  0
  6  1  1  0
  4  7  1  0
  7  8  2  0
  8  9  1  0
  9  5  1  0
  6 10  1  0
 10 11  1  0
 11 12  1  0
 12 13  1  0
 13 14  1  0
 14 15  1  0
 15 10  1  0
 13 16  1  0
 16 17  1  0
 17 18  2  0
 18 19  1  0
 19 20  2  0
 20 21  1  0
 21 22  2  0
 22 17  1  0
 20 23  1  0
  8 24  1  0
M  END
> <Name>
Molecule

> <OSM_ID>
OSM-S-136

> <Sample_ID>
MNR115-2

> <link>
http://malaria.ourexperiment.org/osm_procedures/7381/Preparation_of_OSMS136.html

> <3D7_IC50_nM_Avery>
15000

> <Series Tag>
Series 3

$$$$
Molecule
  SciTegic10081310362D

 33 37  0  0  0  0            999 V2000
   -2.3155    0.7475    0.0000 N   0  0
   -2.3155   -0.7475    0.0000 C   0  0
   -1.0028   -1.5132    0.0000 N   0  0
    0.2917   -0.7475    0.0000 C   0  0
    0.2917    0.7475    0.0000 C   0  0
   -1.0028    1.5132    0.0000 C   0  0
    1.7138   -1.2033    0.0000 C   0  0
    2.5889    0.0182    0.0000 C   0  0
    1.7138    1.2033    0.0000 S   0  0
   -0.9982    3.0140    0.0000 N   0  0
   -2.2894    3.7767    0.0000 C   0  0
   -2.2745    5.2767    0.0000 C   0  0
   -0.9680    6.0137    0.0000 N   0  0
    0.3235    5.2508    0.0000 C   0  0
    0.3086    3.7509    0.0000 C   0  0
   -0.9500    7.5144    0.0000 C   0  0
    0.3582    8.2500    0.0000 C   0  0
    0.3785    9.7499    0.0000 C   0  0
    1.6875   10.4824    0.0000 C   0  0
    2.9763    9.7150    0.0000 C   0  0
    2.9562    8.2151    0.0000 C   0  0
    1.6472    7.4826    0.0000 C   0  0
    4.0235   10.3010    0.0000 F   0  0
    4.0896    0.0290    0.0000 C   0  0
    4.9234    1.2700    0.0000 C   0  0
    6.4199    1.1671    0.0000 C   0  0
    7.0791   -0.1803    0.0000 C   0  0
    6.2418   -1.4248    0.0000 C   0  0
    4.7453   -1.3220    0.0000 C   0  0
    6.9013   -2.7730    0.0000 S   0  0
    8.0984   -2.8560    0.0000 O   0  0
    6.2312   -3.7684    0.0000 N   0  0
    7.4281   -3.8511    0.0000 O   0  0
  1  2  2  0
  2  3  1  0
  3  4  2  0
  4  5  1  0
  5  6  2  0
  6  1  1  0
  4  7  1  0
  7  8  2  0
  8  9  1  0
  9  5  1  0
  6 10  1  0
 10 11  1  0
 11 12  1  0
 12 13  1  0
 13 14  1  0
 14 15  1  0
 15 10  1  0
 13 16  1  0
 16 17  1  0
 17 18  2  0
 18 19  1  0
 19 20  2  0
 20 21  1  0
 21 22  2  0
 22 17  1  0
 20 23  1  0
  8 24  1  0
 24 25  2  0
 25 26  1  0
 26 27  2  0
 27 28  1  0
 28 29  2  0
 29 24  1  0
 28 30  1  0
 30 31  2  0
 30 32  1  0
 30 33  2  0
M  END
> <Name>
Molecule

> <OSM_ID>
OSM-S-137

> <Sample_ID>
MNR120-1

> <link>
http://malaria.ourexperiment.org/osm_procedures/7382/Preparation_of_OSMS137.html

> <3D7_IC50_nM_Avery>
17000

> <Series Tag>
Series 3

$$$$
Molecule
  SciTegic10081310362D

 28 31  0  0  0  0            999 V2000
    1.2990   -0.7500    0.0000 C   0  0
    1.2990    0.7500    0.0000 C   0  0
    0.0000    1.5000    0.0000 C   0  0
   -1.2990    0.7500    0.0000 C   0  0
   -1.2990   -0.7500    0.0000 C   0  0
    0.0000   -1.5000    0.0000 C   0  0
    0.0000   -3.0008    0.0000 N   0  0
   -1.2122   -3.8625    0.0000 C   0  0
   -0.7464   -5.2884    0.0000 C   0  0
    0.7536   -5.2860    0.0000 C   0  0
    1.2149   -3.8587    0.0000 C   0  0
    2.3533   -3.4793    0.0000 C   0  0
   -2.3518   -3.4867    0.0000 C   0  0
   -1.6226   -6.5037    0.0000 C   0  0
    0.0000    2.7000    0.0000 N   0  0
    4.5194  -10.3681    0.0000 C   0  0
    3.2139   -9.6293    0.0000 C   0  0
    3.2011   -8.1293    0.0000 C   0  0
    4.4937   -7.3682    0.0000 C   0  0
    5.7991   -8.1070    0.0000 C   0  0
    5.8120   -9.6070    0.0000 C   0  0
    1.9191  -10.3882    0.0000 N   0  0
    0.6162   -9.6484    0.0000 C   0  0
   -0.7510  -10.2654    0.0000 N   0  0
   -1.7603   -9.1558    0.0000 C   0  0
   -1.0080   -7.8729    0.0000 C   0  0
    0.4519   -8.1574    0.0000 S   0  0
   -2.9539   -9.2802    0.0000 O   0  0
  1  2  2  0
  2  3  1  0
  3  4  2  0
  4  5  1  0
  5  6  2  0
  6  1  1  0
  6  7  1  0
  7  8  1  0
  8  9  2  0
  9 10  1  0
 10 11  2  0
 11  7  1  0
 11 12  1  0
  8 13  1  0
  9 14  1  0
  3 15  1  0
 16 17  2  0
 17 18  1  0
 18 19  2  0
 19 20  1  0
 20 21  2  0
 21 16  1  0
 17 22  1  0
 22 23  2  0
 23 24  1  0
 24 25  1  0
 25 26  1  0
 26 27  1  0
 27 23  1  0
 25 28  2  0
 26 14  2  0
M  END
> <Name>
Molecule

> <OSM_ID>
OSM-S-138

> <Sample_ID>
MNR121-1

> <link>
http://malaria.ourexperiment.org/osm_procedures/7383/Preparation_of_OSMS138.html

> <3D7_IC50_nM_Avery>
23000

> <Series Tag>
Series 1

$$$$
chloroquine
  SciTegic10081310362D

 22 23  0  0  0  0            999 V2000
   -3.6486    1.3517    0.0000 Cl  0  0
   -2.6111    0.7486    0.0000 C   0  0
   -1.2964    1.4973    0.0000 C   0  0
    0.0000    0.7486    0.0000 C   0  0
    1.2964    1.4973    0.0000 N   0  0
    2.5929    0.7486    0.0000 C   0  0
    2.5929   -0.7486    0.0000 C   0  0
    1.2964   -1.4973    0.0000 C   0  0
    0.0000   -0.7486    0.0000 C   0  0
   -1.2964   -1.4973    0.0000 C   0  0
   -2.6111   -0.7486    0.0000 C   0  0
    1.2995   -2.9981    0.0000 N   0  0
    2.6003   -3.7467    0.0000 C   0  0
    3.6385   -3.1449    0.0000 C   0  0
    2.6034   -5.2475    0.0000 C   0  0
    3.9042   -5.9961    0.0000 C   0  0
    3.9073   -7.4969    0.0000 C   0  0
    5.2082   -8.2455    0.0000 N   0  0
    5.2112   -9.7463    0.0000 C   0  0
    6.2513  -10.3448    0.0000 C   0  0
    6.5081   -7.4955    0.0000 C   0  0
    7.5476   -8.0951    0.0000 C   0  0
  1  2  1  0
  2 11  1  0
  2  3  2  0
  3  4  1  0
  4  9  1  0
  4  5  2  0
  5  6  1  0
  6  7  2  0
  7  8  1  0
  8  9  2  0
  8 12  1  0
  9 10  1  0
 10 11  2  0
 12 13  1  0
 13 14  1  0
 13 15  1  0
 15 16  1  0
 16 17  1  0
 17 18  1  0
 18 19  1  0
 18 21  1  0
 19 20  1  0
 21 22  1  0
M  END
> <Name>
chloroquine

> <OSM_ID>
chloroquine

> <ChEMBL>
dep1

> <3D7_IC50_nM_Avery>
18.7

> <Series>
control

$$$$
artemisinin
  SciTegic10081310362D

 25 28  0  0  0  0            999 V2000
    2.4381   -3.8603    0.0000 O   0  0
    1.8400   -2.8200    0.0000 C   0  0
    0.1500   -2.8200    0.0000 O   0  0
   -0.6900   -1.3600    0.0000 C   0  0  2  0  0  0
   -1.1907   -2.2256    0.0000 H   0  0
   -1.9100   -1.3600    0.0000 O   0  0
   -2.7600   -0.5000    0.0000 C   0  0  2  0  0  0
   -2.1000    0.1500    0.0000 O   0  0
   -1.1700    0.6900    0.0000 O   0  0
    0.1500    0.1000    0.0000 C   0  0  1  0  0  0
   -0.6900    1.5700    0.0000 C   0  0  1  0  0  0
   -1.1907    2.4356    0.0000 H   0  0
   -1.9100    1.5700    0.0000 C   0  0
   -2.7600    0.7100    0.0000 C   0  0
    0.1500    3.0300    0.0000 C   0  0  2  0  0  0
   -0.8497    3.0057    0.0000 H   0  0
    0.7734    4.0554    0.0000 C   0  0
    1.8400    3.0300    0.0000 C   0  0
    2.6900    1.5700    0.0000 C   0  0
    1.8400    0.1000    0.0000 C   0  0  1  0  0  0
    2.8400    0.1015    0.0000 H   0  0
    2.6900   -1.3600    0.0000 C   0  0  1  0  0  0
    3.1697   -0.4826    0.0000 H   0  0
    3.2658   -2.4129    0.0000 C   0  0
   -3.5516    0.1111    0.0000 C   0  0
  1  2  2  0
  2 22  1  0
  2  3  1  0
  3  4  1  0
  4  5  1  1
  4 10  1  0
  4  6  1  0
  6  7  1  0
  7 14  1  0
  7  8  1  0
  7 25  1  6
  8  9  1  0
 10  9  1  6
 10 20  1  0
 10 11  1  0
 11 12  1  6
 11 13  1  0
 11 15  1  0
 13 14  1  0
 15 16  1  1
 15 17  1  0
 15 18  1  0
 18 19  1  0
 19 20  1  0
 20 21  1  6
 20 22  1  0
 22 23  1  6
 22 24  1  0
M  END
> <Name>
artemisinin

> <OSM_ID>
artemisinin

> <ChEMBL>
dep1

> <3D7_IC50_nM_Avery>
6

> <Series>
control

$$$$
artesunate
  SciTegic10081310362D

 33 36  0  0  0  0            999 V2000
    1.3438  -10.3438    0.0000 O   0  0
    0.7984   -9.2749    0.0000 C   0  0
   -0.4000   -9.2132    0.0000 O   0  0
    1.6143   -8.0152    0.0000 C   0  0
    0.9322   -6.6784    0.0000 C   0  0
    1.7481   -5.4187    0.0000 C   0  0
    2.9465   -5.4805    0.0000 O   0  0
    1.0660   -4.0819    0.0000 O   0  0
    1.8400   -2.8200    0.0000 C   0  0  2  0  0  0
    2.8397   -2.7972    0.0000 H   0  0
    0.1500   -2.8200    0.0000 O   0  0
   -0.6900   -1.3600    0.0000 C   0  0  2  0  0  0
   -1.1907   -2.2256    0.0000 H   0  0
   -1.9100   -1.3600    0.0000 O   0  0
   -2.7600   -0.5000    0.0000 C   0  0  2  0  0  0
   -2.1000    0.1500    0.0000 O   0  0
   -1.1700    0.6900    0.0000 O   0  0
    0.1500    0.1000    0.0000 C   0  0  2  0  0  0
    1.8400    0.1000    0.0000 C   0  0  1  0  0  0
    2.8400    0.1015    0.0000 H   0  0
    2.6900    1.5700    0.0000 C   0  0
    1.8400    3.0300    0.0000 C   0  0
    0.1500    3.0300    0.0000 C   0  0  1  0  0  0
   -0.8497    3.0057    0.0000 H   0  0
    0.7734    4.0554    0.0000 C   0  0
   -0.6900    1.5700    0.0000 C   0  0  2  0  0  0
   -1.1907    2.4356    0.0000 H   0  0
   -1.9100    1.5700    0.0000 C   0  0
   -2.7600    0.7100    0.0000 C   0  0
    2.6900   -1.3600    0.0000 C   0  0  1  0  0  0
    3.1697   -0.4826    0.0000 H   0  0
    3.2658   -2.4129    0.0000 C   0  0
   -3.5516    0.1111    0.0000 C   0  0
  1  2  2  0
  2  3  1  0
  2  4  1  0
  4  5  1  0
  5  6  1  0
  6  7  2  0
  6  8  1  0
  8  9  1  0
  9 10  1  1
  9 30  1  0
  9 11  1  0
 11 12  1  0
 12 13  1  1
 12 18  1  0
 12 14  1  0
 14 15  1  0
 15 29  1  0
 15 16  1  0
 15 33  1  6
 16 17  1  0
 18 17  1  6
 18 26  1  0
 18 19  1  0
 19 20  1  6
 19 21  1  0
 19 30  1  0
 21 22  1  0
 22 23  1  0
 23 24  1  1
 23 25  1  0
 23 26  1  0
 26 27  1  6
 26 28  1  0
 28 29  1  0
 30 31  1  6
 30 32  1  0
M  END
> <Name>
artesunate

> <OSM_ID>
artesunate

> <ChEMBL>
dep1

> <Series>
control

$$$$
Pyrimethamine
  SciTegic10081310362D

 17 18  0  0  0  0            999 V2000
    2.3383   -1.3500    0.0000 Cl  0  0
    1.2990   -0.7500    0.0000 C   0  0
    0.0000   -1.5000    0.0000 C   0  0
   -1.2990   -0.7500    0.0000 C   0  0
   -1.2990    0.7500    0.0000 C   0  0
   -2.5987    1.5004    0.0000 C   0  0
   -3.8967    0.7484    0.0000 C   0  0
   -5.1969    1.4963    0.0000 N   0  0
   -5.1993    2.9963    0.0000 C   0  0
   -3.9015    3.7484    0.0000 N   0  0
   -2.6012    3.0004    0.0000 C   0  0
   -1.3042    3.7556    0.0000 C   0  0
   -1.3079    4.9556    0.0000 C   0  0
   -6.2395    3.5946    0.0000 N   0  0
   -3.8948   -0.4516    0.0000 N   0  0
    0.0000    1.5000    0.0000 C   0  0
    1.2990    0.7500    0.0000 C   0  0
  1  2  1  0
  2 17  1  0
  2  3  2  0
  3  4  1  0
  4  5  2  0
  5  6  1  0
  5 16  1  0
  6 11  1  0
  6  7  2  0
  7  8  1  0
  7 15  1  0
  8  9  2  0
  9 10  1  0
  9 14  1  0
 10 11  2  0
 11 12  1  0
 12 13  1  0
 16 17  2  0
M  END
> <Name>
Pyrimethamine

> <OSM_ID>
Pyrimethamine

> <ChEMBL>
dep1

> <3D7_IC50_nM_Avery>
11

> <Series>
control

$$$$
Tafenoquine
  SciTegic10081310362D

 33 35  0  0  0  0            999 V2000
   -4.9144    8.1116    0.0000 F   0  0
   -3.8770    7.5084    0.0000 C   0  0
   -2.8361    8.1056    0.0000 F   0  0
   -3.8735    8.7084    0.0000 F   0  0
   -3.8807    6.0076    0.0000 C   0  0
   -2.5835    5.2544    0.0000 C   0  0
   -2.5870    3.7544    0.0000 C   0  0
   -1.2907    2.9981    0.0000 O   0  0
   -1.2964    1.4973    0.0000 C   0  0
   -2.6111    0.7486    0.0000 C   0  0
   -3.9122    1.4966    0.0000 O   0  0
   -4.9506    0.8952    0.0000 C   0  0
   -2.6111   -0.7486    0.0000 C   0  0
   -1.2964   -1.4973    0.0000 C   0  0
   -1.2907   -2.9981    0.0000 N   0  0
   -2.5870   -3.7544    0.0000 C   0  0
   -3.6288   -3.1588    0.0000 C   0  0
   -2.5812   -5.2552    0.0000 C   0  0
   -3.8775   -6.0115    0.0000 C   0  0
   -3.8717   -7.5123    0.0000 C   0  0
   -4.9082   -8.1170    0.0000 N   0  0
    0.0000   -0.7486    0.0000 C   0  0
    1.2964   -1.4973    0.0000 N   0  0
    2.5929   -0.7486    0.0000 C   0  0
    3.8942   -1.4964    0.0000 O   0  0
    4.9326   -0.8949    0.0000 C   0  0
    2.5929    0.7486    0.0000 C   0  0
    1.2964    1.4973    0.0000 C   0  0
    0.0000    0.7486    0.0000 C   0  0
    1.2964    2.6973    0.0000 C   0  0
   -3.8880    3.0076    0.0000 C   0  0
   -5.1852    3.7608    0.0000 C   0  0
   -5.1815    5.2608    0.0000 C   0  0
  1  2  1  0
  2  3  1  0
  2  4  1  0
  2  5  1  0
  5 33  1  0
  5  6  2  0
  6  7  1  0
  7  8  1  0
  7 31  2  0
  8  9  1  0
  9 29  1  0
  9 10  2  0
 10 11  1  0
 10 13  1  0
 11 12  1  0
 13 14  2  0
 14 15  1  0
 14 22  1  0
 15 16  1  0
 16 17  1  0
 16 18  1  0
 18 19  1  0
 19 20  1  0
 20 21  1  0
 22 29  1  0
 22 23  2  0
 23 24  1  0
 24 25  1  0
 24 27  2  0
 25 26  1  0
 27 28  1  0
 28 29  2  0
 28 30  1  0
 31 32  1  0
 32 33  2  0
M  END
> <Name>
Tafenoquine

> <OSM_ID>
Tafenoquine

> <ChEMBL>
dep1

> <3D7_IC50_nM_Avery>
451

> <Series>
control

$$$$
Pyronaridine
  SciTegic10081310362D

 37 42  0  0  0  0            999 V2000
   -4.9360    1.3500    0.0000 Cl  0  0
   -3.8968    0.7501    0.0000 C   0  0
   -2.5978    1.5002    0.0000 C   0  0
   -1.2989    0.7501    0.0000 C   0  0
   -1.2989   -0.7501    0.0000 C   0  0
   -2.5978   -1.5002    0.0000 C   0  0
   -3.8968   -0.7501    0.0000 C   0  0
    0.0000   -1.5002    0.0000 C   0  0
    0.0120   -3.0009    0.0000 N   0  0
   -1.2813   -3.7624    0.0000 C   0  0
   -1.2656   -5.2624    0.0000 C   0  0
   -2.5566   -6.0261    0.0000 C   0  0
   -3.8635   -5.2898    0.0000 C   0  0
   -4.8963   -5.9008    0.0000 O   0  0
   -3.8793   -3.7899    0.0000 C   0  0
   -2.5883   -3.0263    0.0000 C   0  0
   -5.1854   -3.0506    0.0000 C   0  0
   -6.4792   -3.8112    0.0000 N   0  0
   -6.6024   -5.2933    0.0000 C   0  0
   -8.0664   -5.6197    0.0000 C   0  0
   -8.8293   -4.3282    0.0000 C   0  0
   -7.8367   -3.2036    0.0000 C   0  0
   -2.5377   -7.5268    0.0000 C   0  0
   -1.2291   -8.2616    0.0000 N   0  0
    0.1135   -7.6217    0.0000 C   0  0
    1.1327   -8.7222    0.0000 C   0  0
    0.4010  -10.0316    0.0000 C   0  0
   -1.0704   -9.7404    0.0000 C   0  0
    1.2806   -0.7501    0.0000 C   0  0
    1.2806    0.7501    0.0000 C   0  0
    0.0000    1.5002    0.0000 N   0  0
    2.5978    1.5002    0.0000 C   0  0
    3.8968    0.7501    0.0000 C   0  0
    3.8968   -0.7501    0.0000 C   0  0
    5.1950   -1.5032    0.0000 O   0  0
    5.1933   -2.7032    0.0000 C   0  0
    2.5978   -1.5002    0.0000 N   0  0
  1  2  1  0
  2  7  1  0
  2  3  2  0
  3  4  1  0
  4 31  1  0
  4  5  2  0
  5  6  1  0
  5  8  1  0
  6  7  2  0
  8  9  1  0
  8 29  2  0
  9 10  2  0
 10 16  1  0
 10 11  1  0
 11 12  2  0
 12 13  1  0
 12 23  1  0
 13 14  2  0
 13 15  1  0
 15 16  2  0
 15 17  1  0
 17 18  1  0
 18 22  1  0
 18 19  1  0
 19 20  1  0
 20 21  1  0
 21 22  1  0
 23 24  1  0
 24 28  1  0
 24 25  1  0
 25 26  1  0
 26 27  1  0
 27 28  1  0
 29 37  1  0
 29 30  1  0
 30 31  1  0
 30 32  2  0
 32 33  1  0
 33 34  2  0
 34 35  1  0
 34 37  1  0
 35 36  1  0
M  END
> <Name>
Pyronaridine

> <OSM_ID>
Pyronaridine

> <ChEMBL>
dep1

> <Series>
control

$$$$
Epoxomicin
  SciTegic10081310362D

 46 46  0  0  0  0            999 V2000
   -0.2510   -1.5342    0.0000 O   0  0
    0.9308   -1.3259    0.0000 C   0  0
    1.8951   -2.4759    0.0000 C   0  0  1  0  0  0
    2.2373   -1.5363    0.0000 H   0  0
    1.3822   -3.8864    0.0000 N   0  0
    2.3465   -5.0364    0.0000 C   0  0
    3.5283   -4.8280    0.0000 O   0  0
    1.8336   -6.4468    0.0000 C   0  0  1  0  0  0
    0.9676   -6.9468    0.0000 H   0  0
    3.1331   -7.1977    0.0000 N   0  0
    3.1336   -8.6985    0.0000 C   0  0
    2.0943   -9.2985    0.0000 O   0  0
    4.4331   -9.4494    0.0000 C   0  0  1  0  0  0
    4.4333   -8.4494    0.0000 H   0  0
    4.4335  -10.9502    0.0000 N   0  0
    5.7330  -11.7010    0.0000 C   0  0
    6.7723  -11.1011    0.0000 O   0  0
    6.2468  -13.1112    0.0000 C   0  0  1  0  0  0
    5.6040  -13.8772    0.0000 H   0  0
    7.7247  -13.3723    0.0000 N   0  0
    8.2384  -14.7825    0.0000 C   0  0
    9.4201  -14.9913    0.0000 O   0  0
    7.4671  -15.7017    0.0000 C   0  0
    8.4961  -12.4531    0.0000 C   0  0
    4.7397  -12.8476    0.0000 C   0  0  1  0  0  0
    3.7547  -12.6749    0.0000 H   0  0
    4.3280  -11.7204    0.0000 C   0  0
    3.7759  -13.9981    0.0000 C   0  0
    2.5938  -13.7914    0.0000 C   0  0
    5.7328   -8.6990    0.0000 C   0  0  1  0  0  0
    5.7325   -7.6990    0.0000 H   0  0
    6.7717   -8.0986    0.0000 C   0  0
    7.0330   -9.4486    0.0000 C   0  0
    8.0722   -8.8487    0.0000 C   0  0
    0.5076   -5.6837    0.0000 C   0  0  2  0  0  0
   -0.3589   -5.1845    0.0000 H   0  0
   -0.5312   -6.2845    0.0000 O   0  0
    0.5063   -4.4837    0.0000 C   0  0
    3.3731   -2.2153    0.0000 C   0  0
    4.3385   -3.3644    0.0000 C   0  0
    5.5202   -3.1561    0.0000 C   0  0
    3.9284   -4.4922    0.0000 C   0  0
    1.4627    0.0880    0.0000 C   0  0  2  0  0  0
    2.6117    1.0521    0.0000 O   0  0
    2.8722   -0.4251    0.0000 C   0  0
    0.6812    0.9986    0.0000 C   0  0
  1  2  2  0
  2  3  1  0
  3  4  1  1
  3  5  1  0
  3 39  1  0
  5  6  1  0
  6  7  2  0
  6  8  1  0
  8  9  1  6
  8 10  1  0
  8 35  1  0
 10 11  1  0
 11 12  2  0
 11 13  1  0
 13 14  1  1
 13 15  1  0
 13 30  1  0
 15 16  1  0
 16 17  2  0
 16 18  1  0
 18 19  1  6
 18 20  1  0
 18 25  1  0
 20 21  1  0
 20 24  1  0
 21 22  2  0
 21 23  1  0
 25 26  1  1
 25 27  1  0
 25 28  1  0
 28 29  1  0
 30 31  1  6
 30 32  1  0
 30 33  1  0
 33 34  1  0
 35 36  1  1
 35 37  1  0
 35 38  1  0
 39 40  1  0
 40 41  1  0
 40 42  1  0
 43  2  1  0
 43 45  1  0
 43 44  1  0
 43 46  1  1
 44 45  1  0
M  END
> <Name>
Epoxomicin

> <OSM_ID>
Stan-Epoxomicin

> <ChEMBL>
dep1

> <3D7_IC50_nM_Avery>
4.2

> <Series>
control

$$$$
Atovaquone
  SciTegic10081310362D

 28 31  0  0  0  0            999 V2000
   -3.6486    1.3517    0.0000 O   0  0
   -2.6111    0.7486    0.0000 C   0  0
   -1.2964    1.4973    0.0000 C   0  0
   -1.2928    2.6973    0.0000 O   0  0
    0.0000    0.7486    0.0000 C   0  0
    1.2964    1.4973    0.0000 C   0  0
    2.5929    0.7486    0.0000 C   0  0
    2.5929   -0.7486    0.0000 C   0  0
    1.2964   -1.4973    0.0000 C   0  0
    0.0000   -0.7486    0.0000 C   0  0
   -1.2964   -1.4973    0.0000 C   0  0
   -1.2928   -2.6973    0.0000 O   0  0
   -2.6111   -0.7486    0.0000 C   0  0
   -3.9106   -1.4994    0.0000 C   0  0
   -3.9083   -2.4994    0.0000 H   0  0
   -5.1727   -2.2717    0.0000 C   0  0
   -6.4726   -1.5234    0.0000 C   0  0
   -6.4745   -0.0234    0.0000 C   0  0
   -6.4522    0.9764    0.0000 H   0  0
   -5.1764    0.7283    0.0000 C   0  0
   -3.8764   -0.0201    0.0000 C   0  0
   -7.7381   -0.7952    0.0000 C   0  0
   -9.0553   -0.0776    0.0000 C   0  0
  -10.3354   -0.8595    0.0000 C   0  0
  -10.2982   -2.3590    0.0000 C   0  0
  -11.3223   -2.9846    0.0000 Cl  0  0
   -8.9810   -3.0767    0.0000 C   0  0
   -7.7010   -2.2947    0.0000 C   0  0
  1  2  1  0
  2 13  2  0
  2  3  1  0
  3  4  2  0
  3  5  1  0
  5 10  1  0
  5  6  2  0
  6  7  1  0
  7  8  2  0
  8  9  1  0
  9 10  2  0
 10 11  1  0
 11 12  2  0
 11 13  1  0
 13 14  1  0
 14 15  1  0
 14 21  1  0
 14 16  1  0
 16 17  1  0
 17 18  1  0
 18 19  1  0
 18 20  1  0
 18 22  1  0
 20 21  1  0
 22 28  1  0
 22 23  2  0
 23 24  1  0
 24 25  2  0
 25 26  1  0
 25 27  1  0
 27 28  2  0
M  END
> <Name>
Atovaquone

> <OSM_ID>
Stan-Atovaquone

> <ChEMBL>
dep1

> <Series>
control

$$$$
